<?xml version="1.0" encoding="utf-8"?>
<febio_spec version="3.0">
   <Module type="solid"/>
   <Control>
      <analysis>STATIC</analysis>
      <time_steps>300</time_steps>
      <step_size>1.000000e-01</step_size>
      <solver>
         <max_refs>15</max_refs>
         <max_ups>10</max_ups>
         <diverge_reform>1</diverge_reform>
         <reform_each_time_step>1</reform_each_time_step>
         <dtol>0.001</dtol>
         <etol>0.01</etol>
         <rtol>0</rtol>
         <lstol>0.9</lstol>
         <min_residual>1e-20</min_residual>
         <qnmethod>BFGS</qnmethod>
         <rhoi>0</rhoi>
      </solver>
      <time_stepper>
         <dtmin>0.01</dtmin>
         <dtmax lc="1"/>
         <max_retries>5</max_retries>
         <opt_iter>10</opt_iter>
      </time_stepper>
   </Control>
   <Globals>
      <Constants>
         <T>0</T>
         <R>0</R>
         <Fc>0</Fc>
      </Constants>
   </Globals>
   <Material>
      <material id="1" name="Material1" type="solid mixture">
         <density>1</density>
         <solid type="reactive viscoelastic">
            <density>1</density>
            <kinetics>1</kinetics>
            <trigger>0</trigger>
            <elastic type="neo-Hookean">
               <E>1.00000000000000000000</E>
               <v>0.00000000000000000000</v>
            </elastic>
            <bond type="neo-Hookean">
               <E>1.00000000000000000000</E>
               <v>0.00000000000000000000</v>
            </bond>
            <relaxation type="relaxation-exponential">
               <tau>3.00000000000000000000</tau>
            </relaxation>
         </solid>
         <solid type="prescribed uniaxial active contraction">
            <T0 lc="2" type="math">(1-tanh(5*((X^2+Y^2)^.5-4)))*H((X^2+Y^2)^.5-3)</T0>
            <mat_axis type="angles">
               <theta>92.25</theta>
               <phi>90</phi>
            </mat_axis>
         </solid>
         <solid type="prescribed uniaxial active contraction">
            <T0 lc="3">1</T0>
            <mat_axis type="angles">
               <theta>2.25</theta>
               <phi>90</phi>
            </mat_axis>
         </solid>
      </material>
   </Material>
   <Mesh>
      <Nodes name="Object01">
         <node id="1">3.39999995,1.77635684e-15,0</node>
         <node id="2">3.65999995,1.77635684e-15,0</node>
         <node id="3">3.91999995,1.77635684e-15,0</node>
         <node id="4">4.17999995,1.77635684e-15,0</node>
         <node id="5">4.43999995,1.77635684e-15,0</node>
         <node id="6">4.69999995,1.77635684e-15,0</node>
         <node id="7">4.95999995,1.77635684e-15,0</node>
         <node id="8">5.21999995,1.77635684e-15,0</node>
         <node id="9">5.47999995,1.77635684e-15,0</node>
         <node id="10">5.73999995,1.77635684e-15,0</node>
         <node id="11">5.99999995,1.77635684e-15,0</node>
         <node id="12">3.38951889,0.266760921,0</node>
         <node id="13">3.6487174,0.287160285,0</node>
         <node id="14">3.9079159,0.30755965,0</node>
         <node id="15">4.16711441,0.327959015,0</node>
         <node id="16">4.42631292,0.348358379,0</node>
         <node id="17">4.68551142,0.368757744,0</node>
         <node id="18">4.94470993,0.389157108,0</node>
         <node id="19">5.20390844,0.409556473,0</node>
         <node id="20">5.46310694,0.429955837,0</node>
<!-- ... 442 like lines cut -->
      </Nodes>
      <Elements name="Part3" type="hex8">
         <elem id="1"> 1, 2, 13, 12, 232, 233, 244, 243</elem>
         <elem id="2"> 2, 3, 14, 13, 233, 234, 245, 244</elem>
         <elem id="3"> 3, 4, 15, 14, 234, 235, 246, 245</elem>
         <elem id="4"> 4, 5, 16, 15, 235, 236, 247, 246</elem>
         <elem id="5"> 5, 6, 17, 16, 236, 237, 248, 247</elem>
         <elem id="6"> 6, 7, 18, 17, 237, 238, 249, 248</elem>
         <elem id="7"> 7, 8, 19, 18, 238, 239, 250, 249</elem>
         <elem id="8"> 8, 9, 20, 19, 239, 240, 251, 250</elem>
         <elem id="9"> 9, 10, 21, 20, 240, 241, 252, 251</elem>
         <elem id="10"> 10, 11, 22, 21, 241, 242, 253, 252</elem>
         <elem id="11"> 12, 13, 24, 23, 243, 244, 255, 254</elem>
         <elem id="12"> 13, 14, 25, 24, 244, 245, 256, 255</elem>
         <elem id="13"> 14, 15, 26, 25, 245, 246, 257, 256</elem>
         <elem id="14"> 15, 16, 27, 26, 246, 247, 258, 257</elem>
         <elem id="15"> 16, 17, 28, 27, 247, 248, 259, 258</elem>
         <elem id="16"> 17, 18, 29, 28, 248, 249, 260, 259</elem>
         <elem id="17"> 18, 19, 30, 29, 249, 250, 261, 260</elem>
         <elem id="18"> 19, 20, 31, 30, 250, 251, 262, 261</elem>
         <elem id="19"> 20, 21, 32, 31, 251, 252, 263, 262</elem>
         <elem id="20"> 21, 22, 33, 32, 252, 253, 264, 263</elem>
<!-- ... 180 like lines cut -->
      </Elements>
      <Surface name="FixedDisplacement1">
         <quad4 id="1"> 1, 2, 233, 232</quad4>
         <quad4 id="2"> 2, 3, 234, 233</quad4>
         <quad4 id="3"> 3, 4, 235, 234</quad4>
         <quad4 id="4"> 4, 5, 236, 235</quad4>
         <quad4 id="5"> 5, 6, 237, 236</quad4>
         <quad4 id="6"> 6, 7, 238, 237</quad4>
         <quad4 id="7"> 7, 8, 239, 238</quad4>
         <quad4 id="8"> 8, 9, 240, 239</quad4>
         <quad4 id="9"> 9, 10, 241, 240</quad4>
         <quad4 id="10"> 10, 11, 242, 241</quad4>
      </Surface>
      <Surface name="FixedDisplacement2">
         <quad4 id="1"> 222, 221, 452, 453</quad4>
         <quad4 id="2"> 223, 222, 453, 454</quad4>
         <quad4 id="3"> 224, 223, 454, 455</quad4>
         <quad4 id="4"> 225, 224, 455, 456</quad4>
         <quad4 id="5"> 226, 225, 456, 457</quad4>
         <quad4 id="6"> 227, 226, 457, 458</quad4>
         <quad4 id="7"> 228, 227, 458, 459</quad4>
         <quad4 id="8"> 229, 228, 459, 460</quad4>
         <quad4 id="9"> 230, 229, 460, 461</quad4>
         <quad4 id="10"> 231, 230, 461, 462</quad4>
      </Surface>
      <Surface name="FixedDisplacement3">
         <quad4 id="1"> 11, 22, 253, 242</quad4>
         <quad4 id="2"> 22, 33, 264, 253</quad4>
         <quad4 id="3"> 33, 44, 275, 264</quad4>
         <quad4 id="4"> 44, 55, 286, 275</quad4>
         <quad4 id="5"> 55, 66, 297, 286</quad4>
         <quad4 id="6"> 66, 77, 308, 297</quad4>
         <quad4 id="7"> 77, 88, 319, 308</quad4>
         <quad4 id="8"> 88, 99, 330, 319</quad4>
         <quad4 id="9"> 99, 110, 341, 330</quad4>
         <quad4 id="10"> 110, 121, 352, 341</quad4>
         <quad4 id="11"> 121, 132, 363, 352</quad4>
         <quad4 id="12"> 132, 143, 374, 363</quad4>
         <quad4 id="13"> 143, 154, 385, 374</quad4>
         <quad4 id="14"> 154, 165, 396, 385</quad4>
         <quad4 id="15"> 165, 176, 407, 396</quad4>
         <quad4 id="16"> 176, 187, 418, 407</quad4>
         <quad4 id="17"> 187, 198, 429, 418</quad4>
         <quad4 id="18"> 198, 209, 440, 429</quad4>
         <quad4 id="19"> 209, 220, 451, 440</quad4>
         <quad4 id="20"> 220, 231, 462, 451</quad4>
      </Surface>
      <ElementSet name="FixedDisplacement4">
         <e id="1"/>
         <e id="2"/>
         <e id="3"/>
         <e id="4"/>
         <e id="5"/>
         <e id="6"/>
         <e id="7"/>
         <e id="8"/>
         <e id="9"/>
         <e id="10"/>
         <e id="11"/>
         <e id="12"/>
         <e id="13"/>
         <e id="14"/>
         <e id="15"/>
         <e id="16"/>
         <e id="17"/>
         <e id="18"/>
         <e id="19"/>
         <e id="20"/>
<!-- ... 180 like lines cut -->
      </ElementSet>
   </Mesh>
   <MeshDomains>
      <SolidDomain mat="Material1" name="Part3"/>
   </MeshDomains>
   <MeshData>
      <ElementData elem_set="Part3" var="mat_axis">
         <e lid="1">
            <a>1,0,0</a>
            <d>0,1,0</d>
         </e>
         <e lid="2">
            <a>1,0,0</a>
            <d>0,1,0</d>
         </e>
         <e lid="3">
            <a>1,0,0</a>
            <d>0,1,0</d>
         </e>
         <e lid="4">
            <a>1,0,0</a>
            <d>0,1,0</d>
         </e>
         <e lid="5">
            <a>1,0,0</a>
            <d>0,1,0</d>
         </e>
         <e lid="6">
            <a>1,0,0</a>
            <d>0,1,0</d>
         </e>
         <e lid="7">
            <a>1,0,0</a>
            <d>0,1,0</d>
         </e>
         <e lid="8">
            <a>1,0,0</a>
            <d>0,1,0</d>
         </e>
         <e lid="9">
            <a>1,0,0</a>
            <d>0,1,0</d>
         </e>
         <e lid="10">
            <a>1,0,0</a>
            <d>0,1,0</d>
         </e>
         <e lid="11">
            <a>0.996917,0.0784591,0</a>
            <d>-0.0784591,0.996917,0</d>
         </e>
         <e lid="12">
            <a>0.996917,0.0784591,0</a>
            <d>-0.0784591,0.996917,0</d>
         </e>
         <e lid="13">
            <a>0.996917,0.0784591,0</a>
            <d>-0.0784591,0.996917,0</d>
         </e>
         <e lid="14">
            <a>0.996917,0.0784591,0</a>
            <d>-0.0784591,0.996917,0</d>
         </e>
         <e lid="15">
            <a>0.996917,0.0784591,0</a>
            <d>-0.0784591,0.996917,0</d>
         </e>
         <e lid="16">
            <a>0.996917,0.0784591,0</a>
            <d>-0.0784591,0.996917,0</d>
         </e>
         <e lid="17">
            <a>0.996917,0.0784591,0</a>
            <d>-0.0784591,0.996917,0</d>
         </e>
         <e lid="18">
            <a>0.996917,0.0784591,0</a>
            <d>-0.0784591,0.996917,0</d>
         </e>
         <e lid="19">
            <a>0.996917,0.0784591,0</a>
            <d>-0.0784591,0.996917,0</d>
         </e>
         <e lid="20">
            <a>0.996917,0.0784591,0</a>
            <d>-0.0784591,0.996917,0</d>
         </e>
         <e lid="21">
            <a>0.987688,0.156434,0</a>
            <d>-0.156434,0.987688,0</d>
         </e>
         <e lid="22">
            <a>0.987688,0.156434,0</a>
            <d>-0.156434,0.987688,0</d>
         </e>
         <e lid="23">
            <a>0.987688,0.156434,0</a>
            <d>-0.156434,0.987688,0</d>
         </e>
         <e lid="24">
            <a>0.987688,0.156434,0</a>
            <d>-0.156434,0.987688,0</d>
         </e>
         <e lid="25">
            <a>0.987688,0.156434,0</a>
            <d>-0.156434,0.987688,0</d>
         </e>
         <e lid="26">
            <a>0.987688,0.156434,0</a>
            <d>-0.156434,0.987688,0</d>
         </e>
         <e lid="27">
            <a>0.987688,0.156434,0</a>
            <d>-0.156434,0.987688,0</d>
         </e>
         <e lid="28">
            <a>0.987688,0.156434,0</a>
            <d>-0.156434,0.987688,0</d>
         </e>
         <e lid="29">
            <a>0.987688,0.156434,0</a>
            <d>-0.156434,0.987688,0</d>
         </e>
         <e lid="30">
            <a>0.987688,0.156434,0</a>
            <d>-0.156434,0.987688,0</d>
         </e>
         <e lid="31">
            <a>0.97237,0.233445,0</a>
            <d>-0.233445,0.97237,0</d>
         </e>
         <e lid="32">
            <a>0.97237,0.233445,0</a>
            <d>-0.233445,0.97237,0</d>
         </e>
         <e lid="33">
            <a>0.97237,0.233445,0</a>
            <d>-0.233445,0.97237,0</d>
         </e>
         <e lid="34">
            <a>0.97237,0.233445,0</a>
            <d>-0.233445,0.97237,0</d>
         </e>
         <e lid="35">
            <a>0.97237,0.233445,0</a>
            <d>-0.233445,0.97237,0</d>
         </e>
         <e lid="36">
            <a>0.97237,0.233445,0</a>
            <d>-0.233445,0.97237,0</d>
         </e>
         <e lid="37">
            <a>0.97237,0.233445,0</a>
            <d>-0.233445,0.97237,0</d>
         </e>
         <e lid="38">
            <a>0.97237,0.233445,0</a>
            <d>-0.233445,0.97237,0</d>
         </e>
         <e lid="39">
            <a>0.97237,0.233445,0</a>
            <d>-0.233445,0.97237,0</d>
         </e>
         <e lid="40">
            <a>0.97237,0.233445,0</a>
            <d>-0.233445,0.97237,0</d>
         </e>
         <e lid="41">
            <a>0.951057,0.309017,0</a>
            <d>-0.309017,0.951057,0</d>
         </e>
         <e lid="42">
            <a>0.951057,0.309017,0</a>
            <d>-0.309017,0.951057,0</d>
         </e>
         <e lid="43">
            <a>0.951057,0.309017,0</a>
            <d>-0.309017,0.951057,0</d>
         </e>
         <e lid="44">
            <a>0.951057,0.309017,0</a>
            <d>-0.309017,0.951057,0</d>
         </e>
         <e lid="45">
            <a>0.951057,0.309017,0</a>
            <d>-0.309017,0.951057,0</d>
         </e>
         <e lid="46">
            <a>0.951057,0.309017,0</a>
            <d>-0.309017,0.951057,0</d>
         </e>
         <e lid="47">
            <a>0.951057,0.309017,0</a>
            <d>-0.309017,0.951057,0</d>
         </e>
         <e lid="48">
            <a>0.951057,0.309017,0</a>
            <d>-0.309017,0.951057,0</d>
         </e>
         <e lid="49">
            <a>0.951057,0.309017,0</a>
            <d>-0.309017,0.951057,0</d>
         </e>
         <e lid="50">
            <a>0.951057,0.309017,0</a>
            <d>-0.309017,0.951057,0</d>
         </e>
         <e lid="51">
            <a>0.92388,0.382683,0</a>
            <d>-0.382683,0.92388,0</d>
         </e>
         <e lid="52">
            <a>0.92388,0.382683,0</a>
            <d>-0.382683,0.92388,0</d>
         </e>
         <e lid="53">
            <a>0.92388,0.382683,0</a>
            <d>-0.382683,0.92388,0</d>
         </e>
         <e lid="54">
            <a>0.92388,0.382683,0</a>
            <d>-0.382683,0.92388,0</d>
         </e>
         <e lid="55">
            <a>0.92388,0.382683,0</a>
            <d>-0.382683,0.92388,0</d>
         </e>
         <e lid="56">
            <a>0.92388,0.382683,0</a>
            <d>-0.382683,0.92388,0</d>
         </e>
         <e lid="57">
            <a>0.92388,0.382683,0</a>
            <d>-0.382683,0.92388,0</d>
         </e>
         <e lid="58">
            <a>0.92388,0.382683,0</a>
            <d>-0.382683,0.92388,0</d>
         </e>
         <e lid="59">
            <a>0.92388,0.382683,0</a>
            <d>-0.382683,0.92388,0</d>
         </e>
         <e lid="60">
            <a>0.92388,0.382683,0</a>
            <d>-0.382683,0.92388,0</d>
         </e>
         <e lid="61">
            <a>0.891007,0.45399,0</a>
            <d>-0.45399,0.891007,0</d>
         </e>
         <e lid="62">
            <a>0.891007,0.45399,0</a>
            <d>-0.45399,0.891007,0</d>
         </e>
         <e lid="63">
            <a>0.891007,0.45399,0</a>
            <d>-0.45399,0.891007,0</d>
         </e>
         <e lid="64">
            <a>0.891007,0.45399,0</a>
            <d>-0.45399,0.891007,0</d>
         </e>
         <e lid="65">
            <a>0.891007,0.45399,0</a>
            <d>-0.45399,0.891007,0</d>
         </e>
         <e lid="66">
            <a>0.891007,0.45399,0</a>
            <d>-0.45399,0.891007,0</d>
         </e>
         <e lid="67">
            <a>0.891007,0.45399,0</a>
            <d>-0.45399,0.891007,0</d>
         </e>
         <e lid="68">
            <a>0.891007,0.45399,0</a>
            <d>-0.45399,0.891007,0</d>
         </e>
         <e lid="69">
            <a>0.891007,0.45399,0</a>
            <d>-0.45399,0.891007,0</d>
         </e>
         <e lid="70">
            <a>0.891007,0.45399,0</a>
            <d>-0.45399,0.891007,0</d>
         </e>
         <e lid="71">
            <a>0.85264,0.522499,0</a>
            <d>-0.522499,0.85264,0</d>
         </e>
         <e lid="72">
            <a>0.85264,0.522499,0</a>
            <d>-0.522499,0.85264,0</d>
         </e>
         <e lid="73">
            <a>0.85264,0.522499,0</a>
            <d>-0.522499,0.85264,0</d>
         </e>
         <e lid="74">
            <a>0.85264,0.522499,0</a>
            <d>-0.522499,0.85264,0</d>
         </e>
         <e lid="75">
            <a>0.85264,0.522499,0</a>
            <d>-0.522499,0.85264,0</d>
         </e>
         <e lid="76">
            <a>0.85264,0.522499,0</a>
            <d>-0.522499,0.85264,0</d>
         </e>
         <e lid="77">
            <a>0.85264,0.522499,0</a>
            <d>-0.522499,0.85264,0</d>
         </e>
         <e lid="78">
            <a>0.85264,0.522499,0</a>
            <d>-0.522499,0.85264,0</d>
         </e>
         <e lid="79">
            <a>0.85264,0.522499,0</a>
            <d>-0.522499,0.85264,0</d>
         </e>
         <e lid="80">
            <a>0.85264,0.522499,0</a>
            <d>-0.522499,0.85264,0</d>
         </e>
         <e lid="81">
            <a>0.809017,0.587785,0</a>
            <d>-0.587785,0.809017,0</d>
         </e>
         <e lid="82">
            <a>0.809017,0.587785,0</a>
            <d>-0.587785,0.809017,0</d>
         </e>
         <e lid="83">
            <a>0.809017,0.587785,0</a>
            <d>-0.587785,0.809017,0</d>
         </e>
         <e lid="84">
            <a>0.809017,0.587785,0</a>
            <d>-0.587785,0.809017,0</d>
         </e>
         <e lid="85">
            <a>0.809017,0.587785,0</a>
            <d>-0.587785,0.809017,0</d>
         </e>
         <e lid="86">
            <a>0.809017,0.587785,0</a>
            <d>-0.587785,0.809017,0</d>
         </e>
         <e lid="87">
            <a>0.809017,0.587785,0</a>
            <d>-0.587785,0.809017,0</d>
         </e>
         <e lid="88">
            <a>0.809017,0.587785,0</a>
            <d>-0.587785,0.809017,0</d>
         </e>
         <e lid="89">
            <a>0.809017,0.587785,0</a>
            <d>-0.587785,0.809017,0</d>
         </e>
         <e lid="90">
            <a>0.809017,0.587785,0</a>
            <d>-0.587785,0.809017,0</d>
         </e>
         <e lid="91">
            <a>0.760406,0.649448,0</a>
            <d>-0.649448,0.760406,0</d>
         </e>
         <e lid="92">
            <a>0.760406,0.649448,0</a>
            <d>-0.649448,0.760406,0</d>
         </e>
         <e lid="93">
            <a>0.760406,0.649448,0</a>
            <d>-0.649448,0.760406,0</d>
         </e>
         <e lid="94">
            <a>0.760406,0.649448,0</a>
            <d>-0.649448,0.760406,0</d>
         </e>
         <e lid="95">
            <a>0.760406,0.649448,0</a>
            <d>-0.649448,0.760406,0</d>
         </e>
         <e lid="96">
            <a>0.760406,0.649448,0</a>
            <d>-0.649448,0.760406,0</d>
         </e>
         <e lid="97">
            <a>0.760406,0.649448,0</a>
            <d>-0.649448,0.760406,0</d>
         </e>
         <e lid="98">
            <a>0.760406,0.649448,0</a>
            <d>-0.649448,0.760406,0</d>
         </e>
         <e lid="99">
            <a>0.760406,0.649448,0</a>
            <d>-0.649448,0.760406,0</d>
         </e>
         <e lid="100">
            <a>0.760406,0.649448,0</a>
            <d>-0.649448,0.760406,0</d>
         </e>
         <e lid="101">
            <a>0.707107,0.707107,0</a>
            <d>-0.707107,0.707107,0</d>
         </e>
         <e lid="102">
            <a>0.707107,0.707107,0</a>
            <d>-0.707107,0.707107,0</d>
         </e>
         <e lid="103">
            <a>0.707107,0.707107,0</a>
            <d>-0.707107,0.707107,0</d>
         </e>
         <e lid="104">
            <a>0.707107,0.707107,0</a>
            <d>-0.707107,0.707107,0</d>
         </e>
         <e lid="105">
            <a>0.707107,0.707107,0</a>
            <d>-0.707107,0.707107,0</d>
         </e>
         <e lid="106">
            <a>0.707107,0.707107,0</a>
            <d>-0.707107,0.707107,0</d>
         </e>
         <e lid="107">
            <a>0.707107,0.707107,0</a>
            <d>-0.707107,0.707107,0</d>
         </e>
         <e lid="108">
            <a>0.707107,0.707107,0</a>
            <d>-0.707107,0.707107,0</d>
         </e>
         <e lid="109">
            <a>0.707107,0.707107,0</a>
            <d>-0.707107,0.707107,0</d>
         </e>
         <e lid="110">
            <a>0.707107,0.707107,0</a>
            <d>-0.707107,0.707107,0</d>
         </e>
         <e lid="111">
            <a>0.649448,0.760406,0</a>
            <d>-0.760406,0.649448,0</d>
         </e>
         <e lid="112">
            <a>0.649448,0.760406,0</a>
            <d>-0.760406,0.649448,0</d>
         </e>
         <e lid="113">
            <a>0.649448,0.760406,0</a>
            <d>-0.760406,0.649448,0</d>
         </e>
         <e lid="114">
            <a>0.649448,0.760406,0</a>
            <d>-0.760406,0.649448,0</d>
         </e>
         <e lid="115">
            <a>0.649448,0.760406,0</a>
            <d>-0.760406,0.649448,0</d>
         </e>
         <e lid="116">
            <a>0.649448,0.760406,0</a>
            <d>-0.760406,0.649448,0</d>
         </e>
         <e lid="117">
            <a>0.649448,0.760406,0</a>
            <d>-0.760406,0.649448,0</d>
         </e>
         <e lid="118">
            <a>0.649448,0.760406,0</a>
            <d>-0.760406,0.649448,0</d>
         </e>
         <e lid="119">
            <a>0.649448,0.760406,0</a>
            <d>-0.760406,0.649448,0</d>
         </e>
         <e lid="120">
            <a>0.649448,0.760406,0</a>
            <d>-0.760406,0.649448,0</d>
         </e>
         <e lid="121">
            <a>0.587785,0.809017,0</a>
            <d>-0.809017,0.587785,0</d>
         </e>
         <e lid="122">
            <a>0.587785,0.809017,0</a>
            <d>-0.809017,0.587785,0</d>
         </e>
         <e lid="123">
            <a>0.587785,0.809017,0</a>
            <d>-0.809017,0.587785,0</d>
         </e>
         <e lid="124">
            <a>0.587785,0.809017,0</a>
            <d>-0.809017,0.587785,0</d>
         </e>
         <e lid="125">
            <a>0.587785,0.809017,0</a>
            <d>-0.809017,0.587785,0</d>
         </e>
         <e lid="126">
            <a>0.587785,0.809017,0</a>
            <d>-0.809017,0.587785,0</d>
         </e>
         <e lid="127">
            <a>0.587785,0.809017,0</a>
            <d>-0.809017,0.587785,0</d>
         </e>
         <e lid="128">
            <a>0.587785,0.809017,0</a>
            <d>-0.809017,0.587785,0</d>
         </e>
         <e lid="129">
            <a>0.587785,0.809017,0</a>
            <d>-0.809017,0.587785,0</d>
         </e>
         <e lid="130">
            <a>0.587785,0.809017,0</a>
            <d>-0.809017,0.587785,0</d>
         </e>
         <e lid="131">
            <a>0.522499,0.85264,0</a>
            <d>-0.85264,0.522499,0</d>
         </e>
         <e lid="132">
            <a>0.522499,0.85264,0</a>
            <d>-0.85264,0.522499,0</d>
         </e>
         <e lid="133">
            <a>0.522499,0.85264,0</a>
            <d>-0.85264,0.522499,0</d>
         </e>
         <e lid="134">
            <a>0.522499,0.85264,0</a>
            <d>-0.85264,0.522499,0</d>
         </e>
         <e lid="135">
            <a>0.522499,0.85264,0</a>
            <d>-0.85264,0.522499,0</d>
         </e>
         <e lid="136">
            <a>0.522499,0.85264,0</a>
            <d>-0.85264,0.522499,0</d>
         </e>
         <e lid="137">
            <a>0.522499,0.85264,0</a>
            <d>-0.85264,0.522499,0</d>
         </e>
         <e lid="138">
            <a>0.522499,0.85264,0</a>
            <d>-0.85264,0.522499,0</d>
         </e>
         <e lid="139">
            <a>0.522499,0.85264,0</a>
            <d>-0.85264,0.522499,0</d>
         </e>
         <e lid="140">
            <a>0.522499,0.85264,0</a>
            <d>-0.85264,0.522499,0</d>
         </e>
         <e lid="141">
            <a>0.453991,0.891006,0</a>
            <d>-0.891006,0.453991,0</d>
         </e>
         <e lid="142">
            <a>0.453991,0.891006,0</a>
            <d>-0.891006,0.453991,0</d>
         </e>
         <e lid="143">
            <a>0.453991,0.891006,0</a>
            <d>-0.891006,0.453991,0</d>
         </e>
         <e lid="144">
            <a>0.453991,0.891006,0</a>
            <d>-0.891006,0.453991,0</d>
         </e>
         <e lid="145">
            <a>0.453991,0.891006,0</a>
            <d>-0.891006,0.453991,0</d>
         </e>
         <e lid="146">
            <a>0.453991,0.891006,0</a>
            <d>-0.891006,0.453991,0</d>
         </e>
         <e lid="147">
            <a>0.453991,0.891006,0</a>
            <d>-0.891006,0.453991,0</d>
         </e>
         <e lid="148">
            <a>0.453991,0.891006,0</a>
            <d>-0.891006,0.453991,0</d>
         </e>
         <e lid="149">
            <a>0.453991,0.891006,0</a>
            <d>-0.891006,0.453991,0</d>
         </e>
         <e lid="150">
            <a>0.453991,0.891006,0</a>
            <d>-0.891006,0.453991,0</d>
         </e>
         <e lid="151">
            <a>0.382683,0.92388,0</a>
            <d>-0.92388,0.382683,0</d>
         </e>
         <e lid="152">
            <a>0.382683,0.92388,0</a>
            <d>-0.92388,0.382683,0</d>
         </e>
         <e lid="153">
            <a>0.382683,0.92388,0</a>
            <d>-0.92388,0.382683,0</d>
         </e>
         <e lid="154">
            <a>0.382683,0.92388,0</a>
            <d>-0.92388,0.382683,0</d>
         </e>
         <e lid="155">
            <a>0.382683,0.92388,0</a>
            <d>-0.92388,0.382683,0</d>
         </e>
         <e lid="156">
            <a>0.382683,0.92388,0</a>
            <d>-0.92388,0.382683,0</d>
         </e>
         <e lid="157">
            <a>0.382683,0.92388,0</a>
            <d>-0.92388,0.382683,0</d>
         </e>
         <e lid="158">
            <a>0.382683,0.92388,0</a>
            <d>-0.92388,0.382683,0</d>
         </e>
         <e lid="159">
            <a>0.382683,0.92388,0</a>
            <d>-0.92388,0.382683,0</d>
         </e>
         <e lid="160">
            <a>0.382683,0.92388,0</a>
            <d>-0.92388,0.382683,0</d>
         </e>
         <e lid="161">
            <a>0.309017,0.951057,0</a>
            <d>-0.951057,0.309017,0</d>
         </e>
         <e lid="162">
            <a>0.309017,0.951057,0</a>
            <d>-0.951057,0.309017,0</d>
         </e>
         <e lid="163">
            <a>0.309017,0.951057,0</a>
            <d>-0.951057,0.309017,0</d>
         </e>
         <e lid="164">
            <a>0.309017,0.951057,0</a>
            <d>-0.951057,0.309017,0</d>
         </e>
         <e lid="165">
            <a>0.309017,0.951057,0</a>
            <d>-0.951057,0.309017,0</d>
         </e>
         <e lid="166">
            <a>0.309017,0.951057,0</a>
            <d>-0.951057,0.309017,0</d>
         </e>
         <e lid="167">
            <a>0.309017,0.951057,0</a>
            <d>-0.951057,0.309017,0</d>
         </e>
         <e lid="168">
            <a>0.309017,0.951057,0</a>
            <d>-0.951057,0.309017,0</d>
         </e>
         <e lid="169">
            <a>0.309017,0.951057,0</a>
            <d>-0.951057,0.309017,0</d>
         </e>
         <e lid="170">
            <a>0.309017,0.951057,0</a>
            <d>-0.951057,0.309017,0</d>
         </e>
         <e lid="171">
            <a>0.233445,0.97237,0</a>
            <d>-0.97237,0.233445,0</d>
         </e>
         <e lid="172">
            <a>0.233445,0.97237,0</a>
            <d>-0.97237,0.233445,0</d>
         </e>
         <e lid="173">
            <a>0.233445,0.97237,0</a>
            <d>-0.97237,0.233445,0</d>
         </e>
         <e lid="174">
            <a>0.233445,0.97237,0</a>
            <d>-0.97237,0.233445,0</d>
         </e>
         <e lid="175">
            <a>0.233445,0.97237,0</a>
            <d>-0.97237,0.233445,0</d>
         </e>
         <e lid="176">
            <a>0.233445,0.97237,0</a>
            <d>-0.97237,0.233445,0</d>
         </e>
         <e lid="177">
            <a>0.233445,0.97237,0</a>
            <d>-0.97237,0.233445,0</d>
         </e>
         <e lid="178">
            <a>0.233445,0.97237,0</a>
            <d>-0.97237,0.233445,0</d>
         </e>
         <e lid="179">
            <a>0.233445,0.97237,0</a>
            <d>-0.97237,0.233445,0</d>
         </e>
         <e lid="180">
            <a>0.233445,0.97237,0</a>
            <d>-0.97237,0.233445,0</d>
         </e>
         <e lid="181">
            <a>0.156434,0.987688,0</a>
            <d>-0.987688,0.156434,0</d>
         </e>
         <e lid="182">
            <a>0.156434,0.987688,0</a>
            <d>-0.987688,0.156434,0</d>
         </e>
         <e lid="183">
            <a>0.156434,0.987688,0</a>
            <d>-0.987688,0.156434,0</d>
         </e>
         <e lid="184">
            <a>0.156434,0.987688,0</a>
            <d>-0.987688,0.156434,0</d>
         </e>
         <e lid="185">
            <a>0.156434,0.987688,0</a>
            <d>-0.987688,0.156434,0</d>
         </e>
         <e lid="186">
            <a>0.156434,0.987688,0</a>
            <d>-0.987688,0.156434,0</d>
         </e>
         <e lid="187">
            <a>0.156434,0.987688,0</a>
            <d>-0.987688,0.156434,0</d>
         </e>
         <e lid="188">
            <a>0.156434,0.987688,0</a>
            <d>-0.987688,0.156434,0</d>
         </e>
         <e lid="189">
            <a>0.156434,0.987688,0</a>
            <d>-0.987688,0.156434,0</d>
         </e>
         <e lid="190">
            <a>0.156434,0.987688,0</a>
            <d>-0.987688,0.156434,0</d>
         </e>
         <e lid="191">
            <a>0.0784591,0.996917,0</a>
            <d>-0.996917,0.0784591,0</d>
         </e>
         <e lid="192">
            <a>0.0784591,0.996917,0</a>
            <d>-0.996917,0.0784591,0</d>
         </e>
         <e lid="193">
            <a>0.0784591,0.996917,0</a>
            <d>-0.996917,0.0784591,0</d>
         </e>
         <e lid="194">
            <a>0.0784591,0.996917,0</a>
            <d>-0.996917,0.0784591,0</d>
         </e>
         <e lid="195">
            <a>0.0784591,0.996917,0</a>
            <d>-0.996917,0.0784591,0</d>
         </e>
         <e lid="196">
            <a>0.0784591,0.996917,0</a>
            <d>-0.996917,0.0784591,0</d>
         </e>
         <e lid="197">
            <a>0.0784591,0.996917,0</a>
            <d>-0.996917,0.0784591,0</d>
         </e>
         <e lid="198">
            <a>0.0784591,0.996917,0</a>
            <d>-0.996917,0.0784591,0</d>
         </e>
         <e lid="199">
            <a>0.0784591,0.996917,0</a>
            <d>-0.996917,0.0784591,0</d>
         </e>
         <e lid="200">
            <a>0.0784591,0.996917,0</a>
            <d>-0.996917,0.0784591,0</d>
         </e>
      </ElementData>
   </MeshData>
   <Boundary>
      <bc name="FixedDisplacement1" node_set="@surface:FixedDisplacement1" type="fix">
         <dofs>y</dofs>
      </bc>
      <bc name="FixedDisplacement2" node_set="@surface:FixedDisplacement2" type="fix">
         <dofs>x</dofs>
      </bc>
      <bc name="FixedDisplacement3" node_set="@surface:FixedDisplacement3" type="fix">
         <dofs>x,y,z</dofs>
      </bc>
      <bc name="FixedDisplacement4" node_set="@elem_set:FixedDisplacement4" type="fix">
         <dofs>z</dofs>
      </bc>
   </Boundary>
   <LoadData>
      <load_controller id="1" type="loadcurve">
         <interpolate>STEP</interpolate>
         <points>
            <point>0,0</point>
            <point>15,5</point>
            <point>30,0.1</point>
         </points>
      </load_controller>
      <load_controller id="2" type="loadcurve">
         <interpolate>STEP</interpolate>
         <points>
            <point>15,0</point>
            <point>20.00000000000000000000,16.00000000000000000000</point>
            <point>30,0</point>
         </points>
      </load_controller>
      <load_controller id="3" type="loadcurve">
         <interpolate>STEP</interpolate>
         <points>
            <point>0,0</point>
            <point>30.00000000000000000000,0.00000000000000000000</point>
         </points>
      </load_controller>
   </LoadData>
   <Output>
      <plotfile type="febio">
         <var type="displacement"/>
         <var type="fiber vector"/>
         <var type="relative volume"/>
         <var type="stress"/>
         <var type="parameter['fem.material[0].solid[1].T0']=T_sphincter"/>
         <var type="parameter['fem.material[0].solid[2].T0']=T_dialator"/>
      </plotfile>
      <logfile>
         <element_data data="x;y;z;sx;sy;sz;Ex;Ey;Ez"/>
         <node_data data="x;y;z;ux;uy;uz"/>
      </logfile>
   </Output>
</febio_spec>