<?xml version="1.0" encoding="utf-8"?>
<febio_spec version="3.0">
   <Module type="solid"/>
   <Control>
      <analysis>STATIC</analysis>
      <time_steps>300</time_steps>
      <step_size>1.000000e-01</step_size>
      <solver>
         <max_refs>15</max_refs>
         <max_ups>10</max_ups>
         <diverge_reform>1</diverge_reform>
         <reform_each_time_step>1</reform_each_time_step>
         <dtol>0.001</dtol>
         <etol>0.01</etol>
         <rtol>0</rtol>
         <lstol>0.9</lstol>
         <min_residual>1e-20</min_residual>
         <qnmethod>BFGS</qnmethod>
         <rhoi>0</rhoi>
      </solver>
      <time_stepper>
         <dtmin>0.030000</dtmin>
         <dtmax>1.000000e-01</dtmax>
         <max_retries>5</max_retries>
         <opt_iter>10</opt_iter>
      </time_stepper>
   </Control>
   <Globals>
      <Constants>
         <T>0</T>
         <R>0</R>
         <Fc>0</Fc>
      </Constants>
   </Globals>
   <Material>
      <material id="1" name="Material1" type="solid mixture">
         <density>1</density>
         <solid type="neo-Hookean">
            <E>1</E>
            <v>.3</v>
         </solid>
         <solid type="prescribed uniaxial active contraction">
            <T0 lc="1" type="math">(1-tanh(5*((X^2+Y^2)^.5-4)))*H((X^2+Y^2)^.5-3)</T0>
            <mat_axis type="angles">
               <theta>94.5</theta>
               <phi>90</phi>
            </mat_axis>
         </solid>
         <solid type="prescribed uniaxial active contraction">
            <T0 lc="2">1</T0>
            <mat_axis type="angles">
               <theta>4.5</theta>
               <phi>90</phi>
            </mat_axis>
         </solid>
      </material>
   </Material>
   <Mesh>
      <Nodes name="Object7">
         <node id="1">3,0,0</node>
         <node id="2">3.3,0,0</node>
         <node id="3">3.6,0,0</node>
         <node id="4">3.9,0,0</node>
         <node id="5">4.2,0,0</node>
         <node id="6">4.5,0,0</node>
         <node id="7">4.8,0,0</node>
         <node id="8">5.1,0,0</node>
         <node id="9">5.4,0,0</node>
         <node id="10">5.7,0,0</node>
         <node id="11">6,0,0</node>
         <node id="12">2.96306502,0.469303387,0</node>
         <node id="13">3.25937153,0.516233726,0</node>
         <node id="14">3.55567803,0.563164065,0</node>
         <node id="15">3.85198453,0.610094403,0</node>
         <node id="16">4.14829103,0.657024742,0</node>
         <node id="17">4.44459753,0.703955081,0</node>
         <node id="18">4.74090404,0.750885419,0</node>
         <node id="19">5.03721054,0.797815758,0</node>
         <node id="20">5.33351704,0.844746097,0</node>
<!-- ... 222 like lines cut -->
      </Nodes>
      <Elements name="Part1" type="hex8">
         <elem id="1"> 1, 2, 13, 12, 122, 123, 134, 133</elem>
         <elem id="2"> 2, 3, 14, 13, 123, 124, 135, 134</elem>
         <elem id="3"> 3, 4, 15, 14, 124, 125, 136, 135</elem>
         <elem id="4"> 4, 5, 16, 15, 125, 126, 137, 136</elem>
         <elem id="5"> 5, 6, 17, 16, 126, 127, 138, 137</elem>
         <elem id="6"> 6, 7, 18, 17, 127, 128, 139, 138</elem>
         <elem id="7"> 7, 8, 19, 18, 128, 129, 140, 139</elem>
         <elem id="8"> 8, 9, 20, 19, 129, 130, 141, 140</elem>
         <elem id="9"> 9, 10, 21, 20, 130, 131, 142, 141</elem>
         <elem id="10"> 10, 11, 22, 21, 131, 132, 143, 142</elem>
         <elem id="11"> 12, 13, 24, 23, 133, 134, 145, 144</elem>
         <elem id="12"> 13, 14, 25, 24, 134, 135, 146, 145</elem>
         <elem id="13"> 14, 15, 26, 25, 135, 136, 147, 146</elem>
         <elem id="14"> 15, 16, 27, 26, 136, 137, 148, 147</elem>
         <elem id="15"> 16, 17, 28, 27, 137, 138, 149, 148</elem>
         <elem id="16"> 17, 18, 29, 28, 138, 139, 150, 149</elem>
         <elem id="17"> 18, 19, 30, 29, 139, 140, 151, 150</elem>
         <elem id="18"> 19, 20, 31, 30, 140, 141, 152, 151</elem>
         <elem id="19"> 20, 21, 32, 31, 141, 142, 153, 152</elem>
         <elem id="20"> 21, 22, 33, 32, 142, 143, 154, 153</elem>
<!-- ... 80 like lines cut -->
      </Elements>
      <Surface name="FixedDisplacement2">
         <quad4 id="1"> 11, 22, 143, 132</quad4>
         <quad4 id="2"> 22, 33, 154, 143</quad4>
         <quad4 id="3"> 33, 44, 165, 154</quad4>
         <quad4 id="4"> 44, 55, 176, 165</quad4>
         <quad4 id="5"> 55, 66, 187, 176</quad4>
         <quad4 id="6"> 66, 77, 198, 187</quad4>
         <quad4 id="7"> 77, 88, 209, 198</quad4>
         <quad4 id="8"> 88, 99, 220, 209</quad4>
         <quad4 id="9"> 99, 110, 231, 220</quad4>
         <quad4 id="10"> 110, 121, 242, 231</quad4>
      </Surface>
      <Surface name="FixedDisplacement3">
         <quad4 id="1"> 1, 2, 123, 122</quad4>
         <quad4 id="2"> 2, 3, 124, 123</quad4>
         <quad4 id="3"> 3, 4, 125, 124</quad4>
         <quad4 id="4"> 4, 5, 126, 125</quad4>
         <quad4 id="5"> 5, 6, 127, 126</quad4>
         <quad4 id="6"> 6, 7, 128, 127</quad4>
         <quad4 id="7"> 7, 8, 129, 128</quad4>
         <quad4 id="8"> 8, 9, 130, 129</quad4>
         <quad4 id="9"> 9, 10, 131, 130</quad4>
         <quad4 id="10"> 10, 11, 132, 131</quad4>
      </Surface>
      <Surface name="FixedDisplacement4">
         <quad4 id="1"> 111, 112, 233, 232</quad4>
         <quad4 id="2"> 112, 113, 234, 233</quad4>
         <quad4 id="3"> 113, 114, 235, 234</quad4>
         <quad4 id="4"> 114, 115, 236, 235</quad4>
         <quad4 id="5"> 115, 116, 237, 236</quad4>
         <quad4 id="6"> 116, 117, 238, 237</quad4>
         <quad4 id="7"> 117, 118, 239, 238</quad4>
         <quad4 id="8"> 118, 119, 240, 239</quad4>
         <quad4 id="9"> 119, 120, 241, 240</quad4>
         <quad4 id="10"> 120, 121, 242, 241</quad4>
      </Surface>
      <ElementSet name="FixedDisplacement1">
         <e id="1"/>
         <e id="2"/>
         <e id="3"/>
         <e id="4"/>
         <e id="5"/>
         <e id="6"/>
         <e id="7"/>
         <e id="8"/>
         <e id="9"/>
         <e id="10"/>
         <e id="11"/>
         <e id="12"/>
         <e id="13"/>
         <e id="14"/>
         <e id="15"/>
         <e id="16"/>
         <e id="17"/>
         <e id="18"/>
         <e id="19"/>
         <e id="20"/>
<!-- ... 80 like lines cut -->
      </ElementSet>
   </Mesh>
   <MeshDomains>
      <SolidDomain mat="Material1" name="Part1"/>
   </MeshDomains>
   <MeshData>
      <ElementData elem_set="Part1" var="mat_axis">
         <e lid="1">
            <a>1,0,0</a>
            <d>0,1,0</d>
         </e>
         <e lid="2">
            <a>1,0,0</a>
            <d>0,1,0</d>
         </e>
         <e lid="3">
            <a>1,0,0</a>
            <d>0,1,0</d>
         </e>
         <e lid="4">
            <a>1,0,0</a>
            <d>0,1,0</d>
         </e>
         <e lid="5">
            <a>1,0,0</a>
            <d>0,1,0</d>
         </e>
         <e lid="6">
            <a>1,0,0</a>
            <d>0,1,0</d>
         </e>
         <e lid="7">
            <a>1,0,0</a>
            <d>0,1,0</d>
         </e>
         <e lid="8">
            <a>1,0,0</a>
            <d>0,1,0</d>
         </e>
         <e lid="9">
            <a>1,0,0</a>
            <d>0,1,0</d>
         </e>
         <e lid="10">
            <a>1,0,0</a>
            <d>0,1,0</d>
         </e>
         <e lid="11">
            <a>0.987688,0.156434,0</a>
            <d>-0.156434,0.987688,0</d>
         </e>
         <e lid="12">
            <a>0.987688,0.156434,0</a>
            <d>-0.156434,0.987688,0</d>
         </e>
         <e lid="13">
            <a>0.987688,0.156434,0</a>
            <d>-0.156434,0.987688,0</d>
         </e>
         <e lid="14">
            <a>0.987688,0.156434,0</a>
            <d>-0.156434,0.987688,0</d>
         </e>
         <e lid="15">
            <a>0.987688,0.156434,0</a>
            <d>-0.156434,0.987688,0</d>
         </e>
         <e lid="16">
            <a>0.987688,0.156434,0</a>
            <d>-0.156434,0.987688,0</d>
         </e>
         <e lid="17">
            <a>0.987688,0.156434,0</a>
            <d>-0.156434,0.987688,0</d>
         </e>
         <e lid="18">
            <a>0.987688,0.156434,0</a>
            <d>-0.156434,0.987688,0</d>
         </e>
         <e lid="19">
            <a>0.987688,0.156434,0</a>
            <d>-0.156434,0.987688,0</d>
         </e>
         <e lid="20">
            <a>0.987688,0.156434,0</a>
            <d>-0.156434,0.987688,0</d>
         </e>
         <e lid="21">
            <a>0.951057,0.309017,0</a>
            <d>-0.309017,0.951057,0</d>
         </e>
         <e lid="22">
            <a>0.951057,0.309017,0</a>
            <d>-0.309017,0.951057,0</d>
         </e>
         <e lid="23">
            <a>0.951057,0.309017,0</a>
            <d>-0.309017,0.951057,0</d>
         </e>
         <e lid="24">
            <a>0.951057,0.309017,0</a>
            <d>-0.309017,0.951057,0</d>
         </e>
         <e lid="25">
            <a>0.951057,0.309017,0</a>
            <d>-0.309017,0.951057,0</d>
         </e>
         <e lid="26">
            <a>0.951057,0.309017,0</a>
            <d>-0.309017,0.951057,0</d>
         </e>
         <e lid="27">
            <a>0.951057,0.309017,0</a>
            <d>-0.309017,0.951057,0</d>
         </e>
         <e lid="28">
            <a>0.951057,0.309017,0</a>
            <d>-0.309017,0.951057,0</d>
         </e>
         <e lid="29">
            <a>0.951057,0.309017,0</a>
            <d>-0.309017,0.951057,0</d>
         </e>
         <e lid="30">
            <a>0.951057,0.309017,0</a>
            <d>-0.309017,0.951057,0</d>
         </e>
         <e lid="31">
            <a>0.891007,0.45399,0</a>
            <d>-0.45399,0.891007,0</d>
         </e>
         <e lid="32">
            <a>0.891007,0.45399,0</a>
            <d>-0.45399,0.891007,0</d>
         </e>
         <e lid="33">
            <a>0.891007,0.45399,0</a>
            <d>-0.45399,0.891007,0</d>
         </e>
         <e lid="34">
            <a>0.891007,0.45399,0</a>
            <d>-0.45399,0.891007,0</d>
         </e>
         <e lid="35">
            <a>0.891007,0.45399,0</a>
            <d>-0.45399,0.891007,0</d>
         </e>
         <e lid="36">
            <a>0.891007,0.45399,0</a>
            <d>-0.45399,0.891007,0</d>
         </e>
         <e lid="37">
            <a>0.891007,0.45399,0</a>
            <d>-0.45399,0.891007,0</d>
         </e>
         <e lid="38">
            <a>0.891007,0.45399,0</a>
            <d>-0.45399,0.891007,0</d>
         </e>
         <e lid="39">
            <a>0.891007,0.45399,0</a>
            <d>-0.45399,0.891007,0</d>
         </e>
         <e lid="40">
            <a>0.891007,0.45399,0</a>
            <d>-0.45399,0.891007,0</d>
         </e>
         <e lid="41">
            <a>0.809017,0.587785,0</a>
            <d>-0.587785,0.809017,0</d>
         </e>
         <e lid="42">
            <a>0.809017,0.587785,0</a>
            <d>-0.587785,0.809017,0</d>
         </e>
         <e lid="43">
            <a>0.809017,0.587785,0</a>
            <d>-0.587785,0.809017,0</d>
         </e>
         <e lid="44">
            <a>0.809017,0.587785,0</a>
            <d>-0.587785,0.809017,0</d>
         </e>
         <e lid="45">
            <a>0.809017,0.587785,0</a>
            <d>-0.587785,0.809017,0</d>
         </e>
         <e lid="46">
            <a>0.809017,0.587785,0</a>
            <d>-0.587785,0.809017,0</d>
         </e>
         <e lid="47">
            <a>0.809017,0.587785,0</a>
            <d>-0.587785,0.809017,0</d>
         </e>
         <e lid="48">
            <a>0.809017,0.587785,0</a>
            <d>-0.587785,0.809017,0</d>
         </e>
         <e lid="49">
            <a>0.809017,0.587785,0</a>
            <d>-0.587785,0.809017,0</d>
         </e>
         <e lid="50">
            <a>0.809017,0.587785,0</a>
            <d>-0.587785,0.809017,0</d>
         </e>
         <e lid="51">
            <a>0.707107,0.707107,0</a>
            <d>-0.707107,0.707107,0</d>
         </e>
         <e lid="52">
            <a>0.707107,0.707107,0</a>
            <d>-0.707107,0.707107,0</d>
         </e>
         <e lid="53">
            <a>0.707107,0.707107,0</a>
            <d>-0.707107,0.707107,0</d>
         </e>
         <e lid="54">
            <a>0.707107,0.707107,0</a>
            <d>-0.707107,0.707107,0</d>
         </e>
         <e lid="55">
            <a>0.707107,0.707107,0</a>
            <d>-0.707107,0.707107,0</d>
         </e>
         <e lid="56">
            <a>0.707107,0.707107,0</a>
            <d>-0.707107,0.707107,0</d>
         </e>
         <e lid="57">
            <a>0.707107,0.707107,0</a>
            <d>-0.707107,0.707107,0</d>
         </e>
         <e lid="58">
            <a>0.707107,0.707107,0</a>
            <d>-0.707107,0.707107,0</d>
         </e>
         <e lid="59">
            <a>0.707107,0.707107,0</a>
            <d>-0.707107,0.707107,0</d>
         </e>
         <e lid="60">
            <a>0.707107,0.707107,0</a>
            <d>-0.707107,0.707107,0</d>
         </e>
         <e lid="61">
            <a>0.587785,0.809017,0</a>
            <d>-0.809017,0.587785,0</d>
         </e>
         <e lid="62">
            <a>0.587785,0.809017,0</a>
            <d>-0.809017,0.587785,0</d>
         </e>
         <e lid="63">
            <a>0.587785,0.809017,0</a>
            <d>-0.809017,0.587785,0</d>
         </e>
         <e lid="64">
            <a>0.587785,0.809017,0</a>
            <d>-0.809017,0.587785,0</d>
         </e>
         <e lid="65">
            <a>0.587785,0.809017,0</a>
            <d>-0.809017,0.587785,0</d>
         </e>
         <e lid="66">
            <a>0.587785,0.809017,0</a>
            <d>-0.809017,0.587785,0</d>
         </e>
         <e lid="67">
            <a>0.587785,0.809017,0</a>
            <d>-0.809017,0.587785,0</d>
         </e>
         <e lid="68">
            <a>0.587785,0.809017,0</a>
            <d>-0.809017,0.587785,0</d>
         </e>
         <e lid="69">
            <a>0.587785,0.809017,0</a>
            <d>-0.809017,0.587785,0</d>
         </e>
         <e lid="70">
            <a>0.587785,0.809017,0</a>
            <d>-0.809017,0.587785,0</d>
         </e>
         <e lid="71">
            <a>0.453991,0.891007,0</a>
            <d>-0.891007,0.453991,0</d>
         </e>
         <e lid="72">
            <a>0.453991,0.891007,0</a>
            <d>-0.891007,0.453991,0</d>
         </e>
         <e lid="73">
            <a>0.453991,0.891007,0</a>
            <d>-0.891007,0.453991,0</d>
         </e>
         <e lid="74">
            <a>0.453991,0.891007,0</a>
            <d>-0.891007,0.453991,0</d>
         </e>
         <e lid="75">
            <a>0.453991,0.891007,0</a>
            <d>-0.891007,0.453991,0</d>
         </e>
         <e lid="76">
            <a>0.453991,0.891007,0</a>
            <d>-0.891007,0.453991,0</d>
         </e>
         <e lid="77">
            <a>0.453991,0.891007,0</a>
            <d>-0.891007,0.453991,0</d>
         </e>
         <e lid="78">
            <a>0.453991,0.891007,0</a>
            <d>-0.891007,0.453991,0</d>
         </e>
         <e lid="79">
            <a>0.453991,0.891007,0</a>
            <d>-0.891007,0.453991,0</d>
         </e>
         <e lid="80">
            <a>0.453991,0.891007,0</a>
            <d>-0.891007,0.453991,0</d>
         </e>
         <e lid="81">
            <a>0.309017,0.951057,0</a>
            <d>-0.951057,0.309017,0</d>
         </e>
         <e lid="82">
            <a>0.309017,0.951057,0</a>
            <d>-0.951057,0.309017,0</d>
         </e>
         <e lid="83">
            <a>0.309017,0.951057,0</a>
            <d>-0.951057,0.309017,0</d>
         </e>
         <e lid="84">
            <a>0.309017,0.951057,0</a>
            <d>-0.951057,0.309017,0</d>
         </e>
         <e lid="85">
            <a>0.309017,0.951057,0</a>
            <d>-0.951057,0.309017,0</d>
         </e>
         <e lid="86">
            <a>0.309017,0.951057,0</a>
            <d>-0.951057,0.309017,0</d>
         </e>
         <e lid="87">
            <a>0.309017,0.951057,0</a>
            <d>-0.951057,0.309017,0</d>
         </e>
         <e lid="88">
            <a>0.309017,0.951057,0</a>
            <d>-0.951057,0.309017,0</d>
         </e>
         <e lid="89">
            <a>0.309017,0.951057,0</a>
            <d>-0.951057,0.309017,0</d>
         </e>
         <e lid="90">
            <a>0.309017,0.951057,0</a>
            <d>-0.951057,0.309017,0</d>
         </e>
         <e lid="91">
            <a>0.156434,0.987688,0</a>
            <d>-0.987688,0.156434,0</d>
         </e>
         <e lid="92">
            <a>0.156434,0.987688,0</a>
            <d>-0.987688,0.156434,0</d>
         </e>
         <e lid="93">
            <a>0.156434,0.987688,0</a>
            <d>-0.987688,0.156434,0</d>
         </e>
         <e lid="94">
            <a>0.156434,0.987688,0</a>
            <d>-0.987688,0.156434,0</d>
         </e>
         <e lid="95">
            <a>0.156434,0.987688,0</a>
            <d>-0.987688,0.156434,0</d>
         </e>
         <e lid="96">
            <a>0.156434,0.987688,0</a>
            <d>-0.987688,0.156434,0</d>
         </e>
         <e lid="97">
            <a>0.156434,0.987688,0</a>
            <d>-0.987688,0.156434,0</d>
         </e>
         <e lid="98">
            <a>0.156434,0.987688,0</a>
            <d>-0.987688,0.156434,0</d>
         </e>
         <e lid="99">
            <a>0.156434,0.987688,0</a>
            <d>-0.987688,0.156434,0</d>
         </e>
         <e lid="100">
            <a>0.156434,0.987688,0</a>
            <d>-0.987688,0.156434,0</d>
         </e>
      </ElementData>
   </MeshData>
   <Boundary>
      <bc name="FixedDisplacement1" node_set="@elem_set:FixedDisplacement1" type="fix">
         <dofs>z</dofs>
      </bc>
      <bc name="FixedDisplacement2" node_set="@surface:FixedDisplacement2" type="fix">
         <dofs>x,y</dofs>
      </bc>
      <bc name="FixedDisplacement3" node_set="@surface:FixedDisplacement3" type="fix">
         <dofs>y</dofs>
      </bc>
      <bc name="FixedDisplacement4" node_set="@surface:FixedDisplacement4" type="fix">
         <dofs>x</dofs>
      </bc>
   </Boundary>
   <LoadData>
      <load_controller id="1" type="loadcurve">
         <interpolate>SMOOTH</interpolate>
         <points>
            <point>0.03994673768308919931,1.00000000000000000000</point>
            <point>0.43941411451398099119,1.00000001490116119385</point>
            <point>0.83888149134487299818,1.00000000000000000000</point>
            <point>1.23834886817576994567,1.00000000000000000000</point>
            <point>1.63781624500666000976,1.00000000000000000000</point>
            <point>2.03728362183754985182,1.00000000000000000000</point>
            <point>2.43675099866843991592,1.00000000000000000000</point>
            <point>2.83621837549932998002,1.00000000000000000000</point>
            <point>3.23568575233022981408,1.00000000000000000000</point>
            <point>3.63515312916111987818,1.00000000000000000000</point>
            <point>4.03462050599201038636,1.00000000000000000000</point>
            <point>4.43408788282290000637,1.00000000000000000000</point>
            <point>4.83355525965378962638,1.00000000000000000000</point>
            <point>5.23302263648468990453,1.00000000000000000000</point>
            <point>5.63249001331558041272,1.00000000000000000000</point>
            <point>6.03195739014647003273,1.00000000000000000000</point>
            <point>6.43142476697735965274,1.00000000000000000000</point>
            <point>6.83089214380825993089,1.00000000000000000000</point>
            <point>7.23035952063915043908,1.00000000000000000000</point>
            <point>7.62982689747004005909,1.00000000000000000000</point>
<!-- ... 56 like lines cut -->
         </points>
      </load_controller>
      <load_controller id="2" type="loadcurve">
         <interpolate>STEP</interpolate>
         <points>
            <point>0.03994673768308919931,1.00000000000000000000</point>
            <point>0.43941411451398099119,1.00000000000000000000</point>
            <point>0.83888149134487299818,1.00000000000000000000</point>
            <point>1.23834886817576994567,1.00000000000000000000</point>
            <point>1.63781624500666000976,1.00000000000000000000</point>
            <point>2.03728362183754985182,1.00000000000000000000</point>
            <point>2.43675099866843991592,1.00000000000000000000</point>
            <point>2.83621837549932998002,1.00000000000000000000</point>
            <point>3.23568575233022981408,1.00000000000000000000</point>
            <point>3.63515312916111987818,1.00000000000000000000</point>
            <point>4.03462050599201038636,1.00000000000000000000</point>
            <point>4.43408788282290000637,1.00000000000000000000</point>
            <point>4.83355525965378962638,1.00000000000000000000</point>
            <point>5.23302263648468990453,1.00000000000000000000</point>
            <point>5.63249001331558041272,1.00000000000000000000</point>
            <point>6.03195739014647003273,1.00000000000000000000</point>
            <point>6.43142476697735965274,1.00000000000000000000</point>
            <point>6.83089214380825993089,1.00000000000000000000</point>
            <point>7.23035952063915043908,1.00000000000000000000</point>
            <point>7.62982689747004005909,1.00000000000000000000</point>
<!-- ... 56 like lines cut -->
         </points>
      </load_controller>
   </LoadData>
   <Output>
      <plotfile type="febio">
         <var type="displacement"/>
         <var type="fiber vector"/>
         <var type="relative volume"/>
         <var type="stress"/>
         <var type="parameter['fem.material[0].solid[1].T0']=T_sphincter"/>
      </plotfile>
      <logfile>
         <element_data data="x;y;z;sx;sy;sz;Ex;Ey;Ez"/>
      </logfile>
   </Output>
</febio_spec>