<?xml version="1.0" encoding="ISO-8859-1"?>
<febio_spec version="3.0">
	<Module type="solid"/>
	<Control>
		<analysis>STATIC</analysis>
		<time_steps>10</time_steps>
		<step_size>0.1</step_size>
		<solver>
			<max_refs>15</max_refs>
			<max_ups>10</max_ups>
			<diverge_reform>1</diverge_reform>
			<reform_each_time_step>1</reform_each_time_step>
			<dtol>0.001</dtol>
			<etol>0.01</etol>
			<rtol>0</rtol>
			<lstol>0.9</lstol>
			<min_residual>1e-20</min_residual>
			<qnmethod>BFGS</qnmethod>
			<rhoi>0</rhoi>
		</solver>
		<time_stepper>
			<dtmin>0.01</dtmin>
			<dtmax>0.1</dtmax>
			<max_retries>10</max_retries>
			<opt_iter>10</opt_iter>
		</time_stepper>
	</Control>
	<Globals>
		<Constants>
			<T>0</T>
			<R>0</R>
			<Fc>0</Fc>
		</Constants>
	</Globals>
	<Material>
		<material id="1" name="Material1" type="solid mixture">
			<density>1</density>
			<solid type="reactive viscoelastic">
				<density>1</density>
				<kinetics>1</kinetics>
				<trigger>0</trigger>
				<elastic type="neo-Hookean">
					<E>10</E>
					<v>0.3</v>
				</elastic>
				<bond type="neo-Hookean">
					<E>1</E>
					<v>0.3</v>
				</bond>
				<relaxation type="relaxation-exponential">
					<tau>1</tau>
				</relaxation>
			</solid>
			<solid type="prescribed uniaxial active contraction">
				<T0 lc="1">15</T0>
				<mat_axis type="vector">
					<a>0,1,0</a>
					<d>0,1,0</d>
				</mat_axis>
			</solid>
			<solid type="prescribed uniaxial active contraction">
				<T0 lc="2">0</T0>
				<mat_axis type="vector">
					<a>1,0,0</a>
					<d>0,1,0</d>
				</mat_axis>
			</solid>
		</material>
	</Material>
	<Mesh>
		<Nodes name="Object2">
			<node id="1">3.4,0,0</node>
			<node id="2">3.53,0,0</node>
			<node id="3">3.66,0,0</node>
			<node id="4">3.79,0,0</node>
			<node id="5">3.92,0,0</node>
			<node id="6">4.05,0,0</node>
			<node id="7">4.18,0,0</node>
			<node id="8">4.31,0,0</node>
			<node id="9">4.44,0,0</node>
			<node id="10">4.57,0,0</node>
			<node id="11">4.7,0,0</node>
			<node id="12">4.83,0,0</node>
			<node id="13">4.96,0,0</node>
			<node id="14">5.09,0,0</node>
			<node id="15">5.22,0,0</node>
			<node id="16">5.35,0,0</node>
			<node id="17">5.48,0,0</node>
			<node id="18">5.61,0,0</node>
			<node id="19">5.74,0,0</node>
			<node id="20">5.87,0,0</node>
<!-- ... 1702 like lines cut -->
		</Nodes>
		<Elements type="hex8" name="Part2">
			<elem id="1">     1,     2,    23,    22,   862,   863,   884,   883</elem>
			<elem id="2">     2,     3,    24,    23,   863,   864,   885,   884</elem>
			<elem id="3">     3,     4,    25,    24,   864,   865,   886,   885</elem>
			<elem id="4">     4,     5,    26,    25,   865,   866,   887,   886</elem>
			<elem id="5">     5,     6,    27,    26,   866,   867,   888,   887</elem>
			<elem id="6">     6,     7,    28,    27,   867,   868,   889,   888</elem>
			<elem id="7">     7,     8,    29,    28,   868,   869,   890,   889</elem>
			<elem id="8">     8,     9,    30,    29,   869,   870,   891,   890</elem>
			<elem id="9">     9,    10,    31,    30,   870,   871,   892,   891</elem>
			<elem id="10">    10,    11,    32,    31,   871,   872,   893,   892</elem>
			<elem id="11">    11,    12,    33,    32,   872,   873,   894,   893</elem>
			<elem id="12">    12,    13,    34,    33,   873,   874,   895,   894</elem>
			<elem id="13">    13,    14,    35,    34,   874,   875,   896,   895</elem>
			<elem id="14">    14,    15,    36,    35,   875,   876,   897,   896</elem>
			<elem id="15">    15,    16,    37,    36,   876,   877,   898,   897</elem>
			<elem id="16">    16,    17,    38,    37,   877,   878,   899,   898</elem>
			<elem id="17">    17,    18,    39,    38,   878,   879,   900,   899</elem>
			<elem id="18">    18,    19,    40,    39,   879,   880,   901,   900</elem>
			<elem id="19">    19,    20,    41,    40,   880,   881,   902,   901</elem>
			<elem id="20">    20,    21,    42,    41,   881,   882,   903,   902</elem>
<!-- ... 780 like lines cut -->
		</Elements>
		<Surface name="FixedDisplacement1">
			<quad4 id="1">     2,     1,    22,    23</quad4>
			<quad4 id="2">     3,     2,    23,    24</quad4>
			<quad4 id="3">     4,     3,    24,    25</quad4>
			<quad4 id="4">     5,     4,    25,    26</quad4>
			<quad4 id="5">     6,     5,    26,    27</quad4>
			<quad4 id="6">     7,     6,    27,    28</quad4>
			<quad4 id="7">     8,     7,    28,    29</quad4>
			<quad4 id="8">     9,     8,    29,    30</quad4>
			<quad4 id="9">    10,     9,    30,    31</quad4>
			<quad4 id="10">    11,    10,    31,    32</quad4>
			<quad4 id="11">    12,    11,    32,    33</quad4>
			<quad4 id="12">    13,    12,    33,    34</quad4>
			<quad4 id="13">    14,    13,    34,    35</quad4>
			<quad4 id="14">    15,    14,    35,    36</quad4>
			<quad4 id="15">    16,    15,    36,    37</quad4>
			<quad4 id="16">    17,    16,    37,    38</quad4>
			<quad4 id="17">    18,    17,    38,    39</quad4>
			<quad4 id="18">    19,    18,    39,    40</quad4>
			<quad4 id="19">    20,    19,    40,    41</quad4>
			<quad4 id="20">    21,    20,    41,    42</quad4>
<!-- ... 780 like lines cut -->
		</Surface>
		<Surface name="FixedDisplacement2">
			<quad4 id="1">    21,    42,   903,   882</quad4>
			<quad4 id="2">    42,    63,   924,   903</quad4>
			<quad4 id="3">    63,    84,   945,   924</quad4>
			<quad4 id="4">    84,   105,   966,   945</quad4>
			<quad4 id="5">   105,   126,   987,   966</quad4>
			<quad4 id="6">   126,   147,  1008,   987</quad4>
			<quad4 id="7">   147,   168,  1029,  1008</quad4>
			<quad4 id="8">   168,   189,  1050,  1029</quad4>
			<quad4 id="9">   189,   210,  1071,  1050</quad4>
			<quad4 id="10">   210,   231,  1092,  1071</quad4>
			<quad4 id="11">   231,   252,  1113,  1092</quad4>
			<quad4 id="12">   252,   273,  1134,  1113</quad4>
			<quad4 id="13">   273,   294,  1155,  1134</quad4>
			<quad4 id="14">   294,   315,  1176,  1155</quad4>
			<quad4 id="15">   315,   336,  1197,  1176</quad4>
			<quad4 id="16">   336,   357,  1218,  1197</quad4>
			<quad4 id="17">   357,   378,  1239,  1218</quad4>
			<quad4 id="18">   378,   399,  1260,  1239</quad4>
			<quad4 id="19">   399,   420,  1281,  1260</quad4>
			<quad4 id="20">   420,   441,  1302,  1281</quad4>
<!-- ... 20 like lines cut -->
		</Surface>
		<Surface name="FixedDisplacement3">
			<quad4 id="1">     1,     2,   863,   862</quad4>
			<quad4 id="2">     2,     3,   864,   863</quad4>
			<quad4 id="3">     3,     4,   865,   864</quad4>
			<quad4 id="4">     4,     5,   866,   865</quad4>
			<quad4 id="5">     5,     6,   867,   866</quad4>
			<quad4 id="6">     6,     7,   868,   867</quad4>
			<quad4 id="7">     7,     8,   869,   868</quad4>
			<quad4 id="8">     8,     9,   870,   869</quad4>
			<quad4 id="9">     9,    10,   871,   870</quad4>
			<quad4 id="10">    10,    11,   872,   871</quad4>
			<quad4 id="11">    11,    12,   873,   872</quad4>
			<quad4 id="12">    12,    13,   874,   873</quad4>
			<quad4 id="13">    13,    14,   875,   874</quad4>
			<quad4 id="14">    14,    15,   876,   875</quad4>
			<quad4 id="15">    15,    16,   877,   876</quad4>
			<quad4 id="16">    16,    17,   878,   877</quad4>
			<quad4 id="17">    17,    18,   879,   878</quad4>
			<quad4 id="18">    18,    19,   880,   879</quad4>
			<quad4 id="19">    19,    20,   881,   880</quad4>
			<quad4 id="20">    20,    21,   882,   881</quad4>
		</Surface>
		<Surface name="FixedDisplacement4">
			<quad4 id="1">   841,   842,  1703,  1702</quad4>
			<quad4 id="2">   842,   843,  1704,  1703</quad4>
			<quad4 id="3">   843,   844,  1705,  1704</quad4>
			<quad4 id="4">   844,   845,  1706,  1705</quad4>
			<quad4 id="5">   845,   846,  1707,  1706</quad4>
			<quad4 id="6">   846,   847,  1708,  1707</quad4>
			<quad4 id="7">   847,   848,  1709,  1708</quad4>
			<quad4 id="8">   848,   849,  1710,  1709</quad4>
			<quad4 id="9">   849,   850,  1711,  1710</quad4>
			<quad4 id="10">   850,   851,  1712,  1711</quad4>
			<quad4 id="11">   851,   852,  1713,  1712</quad4>
			<quad4 id="12">   852,   853,  1714,  1713</quad4>
			<quad4 id="13">   853,   854,  1715,  1714</quad4>
			<quad4 id="14">   854,   855,  1716,  1715</quad4>
			<quad4 id="15">   855,   856,  1717,  1716</quad4>
			<quad4 id="16">   856,   857,  1718,  1717</quad4>
			<quad4 id="17">   857,   858,  1719,  1718</quad4>
			<quad4 id="18">   858,   859,  1720,  1719</quad4>
			<quad4 id="19">   859,   860,  1721,  1720</quad4>
			<quad4 id="20">   860,   861,  1722,  1721</quad4>
		</Surface>
	</Mesh>
	<MeshDomains>
		<SolidDomain name="Part2" mat="Material1"/>
	</MeshDomains>
	<MeshData>
		<ElementData var="mat_axis" elem_set="Part2">
			<e lid="1">
				<a>1,0,0</a>
				<d>0,1,0</d>
			</e>
			<e lid="2">
				<a>1,0,0</a>
				<d>0,1,0</d>
			</e>
			<e lid="3">
				<a>1,0,0</a>
				<d>0,1,0</d>
			</e>
			<e lid="4">
				<a>1,0,0</a>
				<d>0,1,0</d>
			</e>
			<e lid="5">
				<a>1,0,0</a>
				<d>0,1,0</d>
			</e>
			<e lid="6">
				<a>1,0,0</a>
				<d>0,1,0</d>
			</e>
			<e lid="7">
				<a>1,0,0</a>
				<d>0,1,0</d>
			</e>
			<e lid="8">
				<a>1,0,0</a>
				<d>0,1,0</d>
			</e>
			<e lid="9">
				<a>1,0,0</a>
				<d>0,1,0</d>
			</e>
			<e lid="10">
				<a>1,0,0</a>
				<d>0,1,0</d>
			</e>
			<e lid="11">
				<a>1,0,0</a>
				<d>0,1,0</d>
			</e>
			<e lid="12">
				<a>1,0,0</a>
				<d>0,1,0</d>
			</e>
			<e lid="13">
				<a>1,0,0</a>
				<d>0,1,0</d>
			</e>
			<e lid="14">
				<a>1,0,0</a>
				<d>0,1,0</d>
			</e>
			<e lid="15">
				<a>1,0,0</a>
				<d>0,1,0</d>
			</e>
			<e lid="16">
				<a>1,0,0</a>
				<d>0,1,0</d>
			</e>
			<e lid="17">
				<a>1,0,0</a>
				<d>0,1,0</d>
			</e>
			<e lid="18">
				<a>1,0,0</a>
				<d>0,1,0</d>
			</e>
			<e lid="19">
				<a>1,0,0</a>
				<d>0,1,0</d>
			</e>
			<e lid="20">
				<a>1,0,0</a>
				<d>0,1,0</d>
			</e>
			<e lid="21">
				<a>0.999229,0.0392598,0</a>
				<d>-0.0392598,0.999229,0</d>
			</e>
			<e lid="22">
				<a>0.999229,0.0392598,0</a>
				<d>-0.0392598,0.999229,0</d>
			</e>
			<e lid="23">
				<a>0.999229,0.0392598,0</a>
				<d>-0.0392598,0.999229,0</d>
			</e>
			<e lid="24">
				<a>0.999229,0.0392598,0</a>
				<d>-0.0392598,0.999229,0</d>
			</e>
			<e lid="25">
				<a>0.999229,0.0392598,0</a>
				<d>-0.0392598,0.999229,0</d>
			</e>
			<e lid="26">
				<a>0.999229,0.0392598,0</a>
				<d>-0.0392598,0.999229,0</d>
			</e>
			<e lid="27">
				<a>0.999229,0.0392598,0</a>
				<d>-0.0392598,0.999229,0</d>
			</e>
			<e lid="28">
				<a>0.999229,0.0392598,0</a>
				<d>-0.0392598,0.999229,0</d>
			</e>
			<e lid="29">
				<a>0.999229,0.0392598,0</a>
				<d>-0.0392598,0.999229,0</d>
			</e>
			<e lid="30">
				<a>0.999229,0.0392598,0</a>
				<d>-0.0392598,0.999229,0</d>
			</e>
			<e lid="31">
				<a>0.999229,0.0392598,0</a>
				<d>-0.0392598,0.999229,0</d>
			</e>
			<e lid="32">
				<a>0.999229,0.0392598,0</a>
				<d>-0.0392598,0.999229,0</d>
			</e>
			<e lid="33">
				<a>0.999229,0.0392598,0</a>
				<d>-0.0392598,0.999229,0</d>
			</e>
			<e lid="34">
				<a>0.999229,0.0392598,0</a>
				<d>-0.0392598,0.999229,0</d>
			</e>
			<e lid="35">
				<a>0.999229,0.0392598,0</a>
				<d>-0.0392598,0.999229,0</d>
			</e>
			<e lid="36">
				<a>0.999229,0.0392598,0</a>
				<d>-0.0392598,0.999229,0</d>
			</e>
			<e lid="37">
				<a>0.999229,0.0392598,0</a>
				<d>-0.0392598,0.999229,0</d>
			</e>
			<e lid="38">
				<a>0.999229,0.0392598,0</a>
				<d>-0.0392598,0.999229,0</d>
			</e>
			<e lid="39">
				<a>0.999229,0.0392598,0</a>
				<d>-0.0392598,0.999229,0</d>
			</e>
			<e lid="40">
				<a>0.999229,0.0392598,0</a>
				<d>-0.0392598,0.999229,0</d>
			</e>
			<e lid="41">
				<a>0.996917,0.0784591,0</a>
				<d>-0.0784591,0.996917,0</d>
			</e>
			<e lid="42">
				<a>0.996917,0.0784591,0</a>
				<d>-0.0784591,0.996917,0</d>
			</e>
			<e lid="43">
				<a>0.996917,0.0784591,0</a>
				<d>-0.0784591,0.996917,0</d>
			</e>
			<e lid="44">
				<a>0.996917,0.0784591,0</a>
				<d>-0.0784591,0.996917,0</d>
			</e>
			<e lid="45">
				<a>0.996917,0.0784591,0</a>
				<d>-0.0784591,0.996917,0</d>
			</e>
			<e lid="46">
				<a>0.996917,0.0784591,0</a>
				<d>-0.0784591,0.996917,0</d>
			</e>
			<e lid="47">
				<a>0.996917,0.0784591,0</a>
				<d>-0.0784591,0.996917,0</d>
			</e>
			<e lid="48">
				<a>0.996917,0.0784591,0</a>
				<d>-0.0784591,0.996917,0</d>
			</e>
			<e lid="49">
				<a>0.996917,0.0784591,0</a>
				<d>-0.0784591,0.996917,0</d>
			</e>
			<e lid="50">
				<a>0.996917,0.0784591,0</a>
				<d>-0.0784591,0.996917,0</d>
			</e>
			<e lid="51">
				<a>0.996917,0.0784591,0</a>
				<d>-0.0784591,0.996917,0</d>
			</e>
			<e lid="52">
				<a>0.996917,0.0784591,0</a>
				<d>-0.0784591,0.996917,0</d>
			</e>
			<e lid="53">
				<a>0.996917,0.0784591,0</a>
				<d>-0.0784591,0.996917,0</d>
			</e>
			<e lid="54">
				<a>0.996917,0.0784591,0</a>
				<d>-0.0784591,0.996917,0</d>
			</e>
			<e lid="55">
				<a>0.996917,0.0784591,0</a>
				<d>-0.0784591,0.996917,0</d>
			</e>
			<e lid="56">
				<a>0.996917,0.0784591,0</a>
				<d>-0.0784591,0.996917,0</d>
			</e>
			<e lid="57">
				<a>0.996917,0.0784591,0</a>
				<d>-0.0784591,0.996917,0</d>
			</e>
			<e lid="58">
				<a>0.996917,0.0784591,0</a>
				<d>-0.0784591,0.996917,0</d>
			</e>
			<e lid="59">
				<a>0.996917,0.0784591,0</a>
				<d>-0.0784591,0.996917,0</d>
			</e>
			<e lid="60">
				<a>0.996917,0.0784591,0</a>
				<d>-0.0784591,0.996917,0</d>
			</e>
			<e lid="61">
				<a>0.993068,0.117537,0</a>
				<d>-0.117537,0.993068,0</d>
			</e>
			<e lid="62">
				<a>0.993068,0.117537,0</a>
				<d>-0.117537,0.993068,0</d>
			</e>
			<e lid="63">
				<a>0.993068,0.117537,0</a>
				<d>-0.117537,0.993068,0</d>
			</e>
			<e lid="64">
				<a>0.993068,0.117537,0</a>
				<d>-0.117537,0.993068,0</d>
			</e>
			<e lid="65">
				<a>0.993068,0.117537,0</a>
				<d>-0.117537,0.993068,0</d>
			</e>
			<e lid="66">
				<a>0.993068,0.117537,0</a>
				<d>-0.117537,0.993068,0</d>
			</e>
			<e lid="67">
				<a>0.993068,0.117537,0</a>
				<d>-0.117537,0.993068,0</d>
			</e>
			<e lid="68">
				<a>0.993068,0.117537,0</a>
				<d>-0.117537,0.993068,0</d>
			</e>
			<e lid="69">
				<a>0.993068,0.117537,0</a>
				<d>-0.117537,0.993068,0</d>
			</e>
			<e lid="70">
				<a>0.993068,0.117537,0</a>
				<d>-0.117537,0.993068,0</d>
			</e>
			<e lid="71">
				<a>0.993068,0.117537,0</a>
				<d>-0.117537,0.993068,0</d>
			</e>
			<e lid="72">
				<a>0.993068,0.117537,0</a>
				<d>-0.117537,0.993068,0</d>
			</e>
			<e lid="73">
				<a>0.993068,0.117537,0</a>
				<d>-0.117537,0.993068,0</d>
			</e>
			<e lid="74">
				<a>0.993068,0.117537,0</a>
				<d>-0.117537,0.993068,0</d>
			</e>
			<e lid="75">
				<a>0.993068,0.117537,0</a>
				<d>-0.117537,0.993068,0</d>
			</e>
			<e lid="76">
				<a>0.993068,0.117537,0</a>
				<d>-0.117537,0.993068,0</d>
			</e>
			<e lid="77">
				<a>0.993068,0.117537,0</a>
				<d>-0.117537,0.993068,0</d>
			</e>
			<e lid="78">
				<a>0.993068,0.117537,0</a>
				<d>-0.117537,0.993068,0</d>
			</e>
			<e lid="79">
				<a>0.993068,0.117537,0</a>
				<d>-0.117537,0.993068,0</d>
			</e>
			<e lid="80">
				<a>0.993068,0.117537,0</a>
				<d>-0.117537,0.993068,0</d>
			</e>
			<e lid="81">
				<a>0.987688,0.156434,0</a>
				<d>-0.156434,0.987688,0</d>
			</e>
			<e lid="82">
				<a>0.987688,0.156434,0</a>
				<d>-0.156434,0.987688,0</d>
			</e>
			<e lid="83">
				<a>0.987688,0.156434,0</a>
				<d>-0.156434,0.987688,0</d>
			</e>
			<e lid="84">
				<a>0.987688,0.156434,0</a>
				<d>-0.156434,0.987688,0</d>
			</e>
			<e lid="85">
				<a>0.987688,0.156434,0</a>
				<d>-0.156434,0.987688,0</d>
			</e>
			<e lid="86">
				<a>0.987688,0.156434,0</a>
				<d>-0.156434,0.987688,0</d>
			</e>
			<e lid="87">
				<a>0.987688,0.156434,0</a>
				<d>-0.156434,0.987688,0</d>
			</e>
			<e lid="88">
				<a>0.987688,0.156434,0</a>
				<d>-0.156434,0.987688,0</d>
			</e>
			<e lid="89">
				<a>0.987688,0.156434,0</a>
				<d>-0.156434,0.987688,0</d>
			</e>
			<e lid="90">
				<a>0.987688,0.156434,0</a>
				<d>-0.156434,0.987688,0</d>
			</e>
			<e lid="91">
				<a>0.987688,0.156434,0</a>
				<d>-0.156434,0.987688,0</d>
			</e>
			<e lid="92">
				<a>0.987688,0.156434,0</a>
				<d>-0.156434,0.987688,0</d>
			</e>
			<e lid="93">
				<a>0.987688,0.156434,0</a>
				<d>-0.156434,0.987688,0</d>
			</e>
			<e lid="94">
				<a>0.987688,0.156434,0</a>
				<d>-0.156434,0.987688,0</d>
			</e>
			<e lid="95">
				<a>0.987688,0.156434,0</a>
				<d>-0.156434,0.987688,0</d>
			</e>
			<e lid="96">
				<a>0.987688,0.156434,0</a>
				<d>-0.156434,0.987688,0</d>
			</e>
			<e lid="97">
				<a>0.987688,0.156434,0</a>
				<d>-0.156434,0.987688,0</d>
			</e>
			<e lid="98">
				<a>0.987688,0.156434,0</a>
				<d>-0.156434,0.987688,0</d>
			</e>
			<e lid="99">
				<a>0.987688,0.156434,0</a>
				<d>-0.156434,0.987688,0</d>
			</e>
			<e lid="100">
				<a>0.987688,0.156434,0</a>
				<d>-0.156434,0.987688,0</d>
			</e>
			<e lid="101">
				<a>0.980785,0.19509,0</a>
				<d>-0.19509,0.980785,0</d>
			</e>
			<e lid="102">
				<a>0.980785,0.19509,0</a>
				<d>-0.19509,0.980785,0</d>
			</e>
			<e lid="103">
				<a>0.980785,0.19509,0</a>
				<d>-0.19509,0.980785,0</d>
			</e>
			<e lid="104">
				<a>0.980785,0.19509,0</a>
				<d>-0.19509,0.980785,0</d>
			</e>
			<e lid="105">
				<a>0.980785,0.19509,0</a>
				<d>-0.19509,0.980785,0</d>
			</e>
			<e lid="106">
				<a>0.980785,0.19509,0</a>
				<d>-0.19509,0.980785,0</d>
			</e>
			<e lid="107">
				<a>0.980785,0.19509,0</a>
				<d>-0.19509,0.980785,0</d>
			</e>
			<e lid="108">
				<a>0.980785,0.19509,0</a>
				<d>-0.19509,0.980785,0</d>
			</e>
			<e lid="109">
				<a>0.980785,0.19509,0</a>
				<d>-0.19509,0.980785,0</d>
			</e>
			<e lid="110">
				<a>0.980785,0.19509,0</a>
				<d>-0.19509,0.980785,0</d>
			</e>
			<e lid="111">
				<a>0.980785,0.19509,0</a>
				<d>-0.19509,0.980785,0</d>
			</e>
			<e lid="112">
				<a>0.980785,0.19509,0</a>
				<d>-0.19509,0.980785,0</d>
			</e>
			<e lid="113">
				<a>0.980785,0.19509,0</a>
				<d>-0.19509,0.980785,0</d>
			</e>
			<e lid="114">
				<a>0.980785,0.19509,0</a>
				<d>-0.19509,0.980785,0</d>
			</e>
			<e lid="115">
				<a>0.980785,0.19509,0</a>
				<d>-0.19509,0.980785,0</d>
			</e>
			<e lid="116">
				<a>0.980785,0.19509,0</a>
				<d>-0.19509,0.980785,0</d>
			</e>
			<e lid="117">
				<a>0.980785,0.19509,0</a>
				<d>-0.19509,0.980785,0</d>
			</e>
			<e lid="118">
				<a>0.980785,0.19509,0</a>
				<d>-0.19509,0.980785,0</d>
			</e>
			<e lid="119">
				<a>0.980785,0.19509,0</a>
				<d>-0.19509,0.980785,0</d>
			</e>
			<e lid="120">
				<a>0.980785,0.19509,0</a>
				<d>-0.19509,0.980785,0</d>
			</e>
			<e lid="121">
				<a>0.97237,0.233445,0</a>
				<d>-0.233445,0.97237,0</d>
			</e>
			<e lid="122">
				<a>0.97237,0.233445,0</a>
				<d>-0.233445,0.97237,0</d>
			</e>
			<e lid="123">
				<a>0.97237,0.233445,0</a>
				<d>-0.233445,0.97237,0</d>
			</e>
			<e lid="124">
				<a>0.97237,0.233445,0</a>
				<d>-0.233445,0.97237,0</d>
			</e>
			<e lid="125">
				<a>0.97237,0.233445,0</a>
				<d>-0.233445,0.97237,0</d>
			</e>
			<e lid="126">
				<a>0.97237,0.233445,0</a>
				<d>-0.233445,0.97237,0</d>
			</e>
			<e lid="127">
				<a>0.97237,0.233445,0</a>
				<d>-0.233445,0.97237,0</d>
			</e>
			<e lid="128">
				<a>0.97237,0.233445,0</a>
				<d>-0.233445,0.97237,0</d>
			</e>
			<e lid="129">
				<a>0.97237,0.233445,0</a>
				<d>-0.233445,0.97237,0</d>
			</e>
			<e lid="130">
				<a>0.97237,0.233445,0</a>
				<d>-0.233445,0.97237,0</d>
			</e>
			<e lid="131">
				<a>0.97237,0.233445,0</a>
				<d>-0.233445,0.97237,0</d>
			</e>
			<e lid="132">
				<a>0.97237,0.233445,0</a>
				<d>-0.233445,0.97237,0</d>
			</e>
			<e lid="133">
				<a>0.97237,0.233445,0</a>
				<d>-0.233445,0.97237,0</d>
			</e>
			<e lid="134">
				<a>0.97237,0.233445,0</a>
				<d>-0.233445,0.97237,0</d>
			</e>
			<e lid="135">
				<a>0.97237,0.233445,0</a>
				<d>-0.233445,0.97237,0</d>
			</e>
			<e lid="136">
				<a>0.97237,0.233445,0</a>
				<d>-0.233445,0.97237,0</d>
			</e>
			<e lid="137">
				<a>0.97237,0.233445,0</a>
				<d>-0.233445,0.97237,0</d>
			</e>
			<e lid="138">
				<a>0.97237,0.233445,0</a>
				<d>-0.233445,0.97237,0</d>
			</e>
			<e lid="139">
				<a>0.97237,0.233445,0</a>
				<d>-0.233445,0.97237,0</d>
			</e>
			<e lid="140">
				<a>0.97237,0.233445,0</a>
				<d>-0.233445,0.97237,0</d>
			</e>
			<e lid="141">
				<a>0.962455,0.27144,0</a>
				<d>-0.27144,0.962455,0</d>
			</e>
			<e lid="142">
				<a>0.962455,0.27144,0</a>
				<d>-0.27144,0.962455,0</d>
			</e>
			<e lid="143">
				<a>0.962455,0.27144,0</a>
				<d>-0.27144,0.962455,0</d>
			</e>
			<e lid="144">
				<a>0.962455,0.27144,0</a>
				<d>-0.27144,0.962455,0</d>
			</e>
			<e lid="145">
				<a>0.962455,0.27144,0</a>
				<d>-0.27144,0.962455,0</d>
			</e>
			<e lid="146">
				<a>0.962455,0.27144,0</a>
				<d>-0.27144,0.962455,0</d>
			</e>
			<e lid="147">
				<a>0.962455,0.27144,0</a>
				<d>-0.27144,0.962455,0</d>
			</e>
			<e lid="148">
				<a>0.962455,0.27144,0</a>
				<d>-0.27144,0.962455,0</d>
			</e>
			<e lid="149">
				<a>0.962455,0.27144,0</a>
				<d>-0.27144,0.962455,0</d>
			</e>
			<e lid="150">
				<a>0.962455,0.27144,0</a>
				<d>-0.27144,0.962455,0</d>
			</e>
			<e lid="151">
				<a>0.962455,0.27144,0</a>
				<d>-0.27144,0.962455,0</d>
			</e>
			<e lid="152">
				<a>0.962455,0.27144,0</a>
				<d>-0.27144,0.962455,0</d>
			</e>
			<e lid="153">
				<a>0.962455,0.27144,0</a>
				<d>-0.27144,0.962455,0</d>
			</e>
			<e lid="154">
				<a>0.962455,0.27144,0</a>
				<d>-0.27144,0.962455,0</d>
			</e>
			<e lid="155">
				<a>0.962455,0.27144,0</a>
				<d>-0.27144,0.962455,0</d>
			</e>
			<e lid="156">
				<a>0.962455,0.27144,0</a>
				<d>-0.27144,0.962455,0</d>
			</e>
			<e lid="157">
				<a>0.962455,0.27144,0</a>
				<d>-0.27144,0.962455,0</d>
			</e>
			<e lid="158">
				<a>0.962455,0.27144,0</a>
				<d>-0.27144,0.962455,0</d>
			</e>
			<e lid="159">
				<a>0.962455,0.27144,0</a>
				<d>-0.27144,0.962455,0</d>
			</e>
			<e lid="160">
				<a>0.962455,0.27144,0</a>
				<d>-0.27144,0.962455,0</d>
			</e>
			<e lid="161">
				<a>0.951057,0.309017,0</a>
				<d>-0.309017,0.951057,0</d>
			</e>
			<e lid="162">
				<a>0.951057,0.309017,0</a>
				<d>-0.309017,0.951057,0</d>
			</e>
			<e lid="163">
				<a>0.951057,0.309017,0</a>
				<d>-0.309017,0.951057,0</d>
			</e>
			<e lid="164">
				<a>0.951057,0.309017,0</a>
				<d>-0.309017,0.951057,0</d>
			</e>
			<e lid="165">
				<a>0.951057,0.309017,0</a>
				<d>-0.309017,0.951057,0</d>
			</e>
			<e lid="166">
				<a>0.951057,0.309017,0</a>
				<d>-0.309017,0.951057,0</d>
			</e>
			<e lid="167">
				<a>0.951057,0.309017,0</a>
				<d>-0.309017,0.951057,0</d>
			</e>
			<e lid="168">
				<a>0.951057,0.309017,0</a>
				<d>-0.309017,0.951057,0</d>
			</e>
			<e lid="169">
				<a>0.951057,0.309017,0</a>
				<d>-0.309017,0.951057,0</d>
			</e>
			<e lid="170">
				<a>0.951057,0.309017,0</a>
				<d>-0.309017,0.951057,0</d>
			</e>
			<e lid="171">
				<a>0.951057,0.309017,0</a>
				<d>-0.309017,0.951057,0</d>
			</e>
			<e lid="172">
				<a>0.951057,0.309017,0</a>
				<d>-0.309017,0.951057,0</d>
			</e>
			<e lid="173">
				<a>0.951057,0.309017,0</a>
				<d>-0.309017,0.951057,0</d>
			</e>
			<e lid="174">
				<a>0.951057,0.309017,0</a>
				<d>-0.309017,0.951057,0</d>
			</e>
			<e lid="175">
				<a>0.951057,0.309017,0</a>
				<d>-0.309017,0.951057,0</d>
			</e>
			<e lid="176">
				<a>0.951057,0.309017,0</a>
				<d>-0.309017,0.951057,0</d>
			</e>
			<e lid="177">
				<a>0.951057,0.309017,0</a>
				<d>-0.309017,0.951057,0</d>
			</e>
			<e lid="178">
				<a>0.951057,0.309017,0</a>
				<d>-0.309017,0.951057,0</d>
			</e>
			<e lid="179">
				<a>0.951057,0.309017,0</a>
				<d>-0.309017,0.951057,0</d>
			</e>
			<e lid="180">
				<a>0.951057,0.309017,0</a>
				<d>-0.309017,0.951057,0</d>
			</e>
			<e lid="181">
				<a>0.938191,0.346117,0</a>
				<d>-0.346117,0.938191,0</d>
			</e>
			<e lid="182">
				<a>0.938191,0.346117,0</a>
				<d>-0.346117,0.938191,0</d>
			</e>
			<e lid="183">
				<a>0.938191,0.346117,0</a>
				<d>-0.346117,0.938191,0</d>
			</e>
			<e lid="184">
				<a>0.938191,0.346117,0</a>
				<d>-0.346117,0.938191,0</d>
			</e>
			<e lid="185">
				<a>0.938191,0.346117,0</a>
				<d>-0.346117,0.938191,0</d>
			</e>
			<e lid="186">
				<a>0.938191,0.346117,0</a>
				<d>-0.346117,0.938191,0</d>
			</e>
			<e lid="187">
				<a>0.938191,0.346117,0</a>
				<d>-0.346117,0.938191,0</d>
			</e>
			<e lid="188">
				<a>0.938191,0.346117,0</a>
				<d>-0.346117,0.938191,0</d>
			</e>
			<e lid="189">
				<a>0.938191,0.346117,0</a>
				<d>-0.346117,0.938191,0</d>
			</e>
			<e lid="190">
				<a>0.938191,0.346117,0</a>
				<d>-0.346117,0.938191,0</d>
			</e>
			<e lid="191">
				<a>0.938191,0.346117,0</a>
				<d>-0.346117,0.938191,0</d>
			</e>
			<e lid="192">
				<a>0.938191,0.346117,0</a>
				<d>-0.346117,0.938191,0</d>
			</e>
			<e lid="193">
				<a>0.938191,0.346117,0</a>
				<d>-0.346117,0.938191,0</d>
			</e>
			<e lid="194">
				<a>0.938191,0.346117,0</a>
				<d>-0.346117,0.938191,0</d>
			</e>
			<e lid="195">
				<a>0.938191,0.346117,0</a>
				<d>-0.346117,0.938191,0</d>
			</e>
			<e lid="196">
				<a>0.938191,0.346117,0</a>
				<d>-0.346117,0.938191,0</d>
			</e>
			<e lid="197">
				<a>0.938191,0.346117,0</a>
				<d>-0.346117,0.938191,0</d>
			</e>
			<e lid="198">
				<a>0.938191,0.346117,0</a>
				<d>-0.346117,0.938191,0</d>
			</e>
			<e lid="199">
				<a>0.938191,0.346117,0</a>
				<d>-0.346117,0.938191,0</d>
			</e>
			<e lid="200">
				<a>0.938191,0.346117,0</a>
				<d>-0.346117,0.938191,0</d>
			</e>
			<e lid="201">
				<a>0.92388,0.382683,0</a>
				<d>-0.382683,0.92388,0</d>
			</e>
			<e lid="202">
				<a>0.92388,0.382683,0</a>
				<d>-0.382683,0.92388,0</d>
			</e>
			<e lid="203">
				<a>0.92388,0.382683,0</a>
				<d>-0.382683,0.92388,0</d>
			</e>
			<e lid="204">
				<a>0.92388,0.382683,0</a>
				<d>-0.382683,0.92388,0</d>
			</e>
			<e lid="205">
				<a>0.92388,0.382683,0</a>
				<d>-0.382683,0.92388,0</d>
			</e>
			<e lid="206">
				<a>0.92388,0.382683,0</a>
				<d>-0.382683,0.92388,0</d>
			</e>
			<e lid="207">
				<a>0.92388,0.382683,0</a>
				<d>-0.382683,0.92388,0</d>
			</e>
			<e lid="208">
				<a>0.92388,0.382683,0</a>
				<d>-0.382683,0.92388,0</d>
			</e>
			<e lid="209">
				<a>0.92388,0.382683,0</a>
				<d>-0.382683,0.92388,0</d>
			</e>
			<e lid="210">
				<a>0.92388,0.382683,0</a>
				<d>-0.382683,0.92388,0</d>
			</e>
			<e lid="211">
				<a>0.92388,0.382683,0</a>
				<d>-0.382683,0.92388,0</d>
			</e>
			<e lid="212">
				<a>0.92388,0.382683,0</a>
				<d>-0.382683,0.92388,0</d>
			</e>
			<e lid="213">
				<a>0.92388,0.382683,0</a>
				<d>-0.382683,0.92388,0</d>
			</e>
			<e lid="214">
				<a>0.92388,0.382683,0</a>
				<d>-0.382683,0.92388,0</d>
			</e>
			<e lid="215">
				<a>0.92388,0.382683,0</a>
				<d>-0.382683,0.92388,0</d>
			</e>
			<e lid="216">
				<a>0.92388,0.382683,0</a>
				<d>-0.382683,0.92388,0</d>
			</e>
			<e lid="217">
				<a>0.92388,0.382683,0</a>
				<d>-0.382683,0.92388,0</d>
			</e>
			<e lid="218">
				<a>0.92388,0.382683,0</a>
				<d>-0.382683,0.92388,0</d>
			</e>
			<e lid="219">
				<a>0.92388,0.382683,0</a>
				<d>-0.382683,0.92388,0</d>
			</e>
			<e lid="220">
				<a>0.92388,0.382683,0</a>
				<d>-0.382683,0.92388,0</d>
			</e>
			<e lid="221">
				<a>0.908143,0.41866,0</a>
				<d>-0.41866,0.908143,0</d>
			</e>
			<e lid="222">
				<a>0.908143,0.41866,0</a>
				<d>-0.41866,0.908143,0</d>
			</e>
			<e lid="223">
				<a>0.908143,0.41866,0</a>
				<d>-0.41866,0.908143,0</d>
			</e>
			<e lid="224">
				<a>0.908143,0.41866,0</a>
				<d>-0.41866,0.908143,0</d>
			</e>
			<e lid="225">
				<a>0.908143,0.41866,0</a>
				<d>-0.41866,0.908143,0</d>
			</e>
			<e lid="226">
				<a>0.908143,0.41866,0</a>
				<d>-0.41866,0.908143,0</d>
			</e>
			<e lid="227">
				<a>0.908143,0.41866,0</a>
				<d>-0.41866,0.908143,0</d>
			</e>
			<e lid="228">
				<a>0.908143,0.41866,0</a>
				<d>-0.41866,0.908143,0</d>
			</e>
			<e lid="229">
				<a>0.908143,0.41866,0</a>
				<d>-0.41866,0.908143,0</d>
			</e>
			<e lid="230">
				<a>0.908143,0.41866,0</a>
				<d>-0.41866,0.908143,0</d>
			</e>
			<e lid="231">
				<a>0.908143,0.41866,0</a>
				<d>-0.41866,0.908143,0</d>
			</e>
			<e lid="232">
				<a>0.908143,0.41866,0</a>
				<d>-0.41866,0.908143,0</d>
			</e>
			<e lid="233">
				<a>0.908143,0.41866,0</a>
				<d>-0.41866,0.908143,0</d>
			</e>
			<e lid="234">
				<a>0.908143,0.41866,0</a>
				<d>-0.41866,0.908143,0</d>
			</e>
			<e lid="235">
				<a>0.908143,0.41866,0</a>
				<d>-0.41866,0.908143,0</d>
			</e>
			<e lid="236">
				<a>0.908143,0.41866,0</a>
				<d>-0.41866,0.908143,0</d>
			</e>
			<e lid="237">
				<a>0.908143,0.41866,0</a>
				<d>-0.41866,0.908143,0</d>
			</e>
			<e lid="238">
				<a>0.908143,0.41866,0</a>
				<d>-0.41866,0.908143,0</d>
			</e>
			<e lid="239">
				<a>0.908143,0.41866,0</a>
				<d>-0.41866,0.908143,0</d>
			</e>
			<e lid="240">
				<a>0.908143,0.41866,0</a>
				<d>-0.41866,0.908143,0</d>
			</e>
			<e lid="241">
				<a>0.891007,0.45399,0</a>
				<d>-0.45399,0.891007,0</d>
			</e>
			<e lid="242">
				<a>0.891007,0.45399,0</a>
				<d>-0.45399,0.891007,0</d>
			</e>
			<e lid="243">
				<a>0.891007,0.45399,0</a>
				<d>-0.45399,0.891007,0</d>
			</e>
			<e lid="244">
				<a>0.891007,0.45399,0</a>
				<d>-0.45399,0.891007,0</d>
			</e>
			<e lid="245">
				<a>0.891007,0.45399,0</a>
				<d>-0.45399,0.891007,0</d>
			</e>
			<e lid="246">
				<a>0.891007,0.45399,0</a>
				<d>-0.45399,0.891007,0</d>
			</e>
			<e lid="247">
				<a>0.891007,0.45399,0</a>
				<d>-0.45399,0.891007,0</d>
			</e>
			<e lid="248">
				<a>0.891007,0.45399,0</a>
				<d>-0.45399,0.891007,0</d>
			</e>
			<e lid="249">
				<a>0.891007,0.45399,0</a>
				<d>-0.45399,0.891007,0</d>
			</e>
			<e lid="250">
				<a>0.891007,0.45399,0</a>
				<d>-0.45399,0.891007,0</d>
			</e>
			<e lid="251">
				<a>0.891007,0.45399,0</a>
				<d>-0.45399,0.891007,0</d>
			</e>
			<e lid="252">
				<a>0.891007,0.45399,0</a>
				<d>-0.45399,0.891007,0</d>
			</e>
			<e lid="253">
				<a>0.891007,0.45399,0</a>
				<d>-0.45399,0.891007,0</d>
			</e>
			<e lid="254">
				<a>0.891007,0.45399,0</a>
				<d>-0.45399,0.891007,0</d>
			</e>
			<e lid="255">
				<a>0.891007,0.45399,0</a>
				<d>-0.45399,0.891007,0</d>
			</e>
			<e lid="256">
				<a>0.891007,0.45399,0</a>
				<d>-0.45399,0.891007,0</d>
			</e>
			<e lid="257">
				<a>0.891007,0.45399,0</a>
				<d>-0.45399,0.891007,0</d>
			</e>
			<e lid="258">
				<a>0.891007,0.45399,0</a>
				<d>-0.45399,0.891007,0</d>
			</e>
			<e lid="259">
				<a>0.891007,0.45399,0</a>
				<d>-0.45399,0.891007,0</d>
			</e>
			<e lid="260">
				<a>0.891007,0.45399,0</a>
				<d>-0.45399,0.891007,0</d>
			</e>
			<e lid="261">
				<a>0.872496,0.488621,0</a>
				<d>-0.488621,0.872496,0</d>
			</e>
			<e lid="262">
				<a>0.872496,0.488621,0</a>
				<d>-0.488621,0.872496,0</d>
			</e>
			<e lid="263">
				<a>0.872496,0.488621,0</a>
				<d>-0.488621,0.872496,0</d>
			</e>
			<e lid="264">
				<a>0.872496,0.488621,0</a>
				<d>-0.488621,0.872496,0</d>
			</e>
			<e lid="265">
				<a>0.872496,0.488621,0</a>
				<d>-0.488621,0.872496,0</d>
			</e>
			<e lid="266">
				<a>0.872496,0.488621,0</a>
				<d>-0.488621,0.872496,0</d>
			</e>
			<e lid="267">
				<a>0.872496,0.488621,0</a>
				<d>-0.488621,0.872496,0</d>
			</e>
			<e lid="268">
				<a>0.872496,0.488621,0</a>
				<d>-0.488621,0.872496,0</d>
			</e>
			<e lid="269">
				<a>0.872496,0.488621,0</a>
				<d>-0.488621,0.872496,0</d>
			</e>
			<e lid="270">
				<a>0.872496,0.488621,0</a>
				<d>-0.488621,0.872496,0</d>
			</e>
			<e lid="271">
				<a>0.872496,0.488621,0</a>
				<d>-0.488621,0.872496,0</d>
			</e>
			<e lid="272">
				<a>0.872496,0.488621,0</a>
				<d>-0.488621,0.872496,0</d>
			</e>
			<e lid="273">
				<a>0.872496,0.488621,0</a>
				<d>-0.488621,0.872496,0</d>
			</e>
			<e lid="274">
				<a>0.872496,0.488621,0</a>
				<d>-0.488621,0.872496,0</d>
			</e>
			<e lid="275">
				<a>0.872496,0.488621,0</a>
				<d>-0.488621,0.872496,0</d>
			</e>
			<e lid="276">
				<a>0.872496,0.488621,0</a>
				<d>-0.488621,0.872496,0</d>
			</e>
			<e lid="277">
				<a>0.872496,0.488621,0</a>
				<d>-0.488621,0.872496,0</d>
			</e>
			<e lid="278">
				<a>0.872496,0.488621,0</a>
				<d>-0.488621,0.872496,0</d>
			</e>
			<e lid="279">
				<a>0.872496,0.488621,0</a>
				<d>-0.488621,0.872496,0</d>
			</e>
			<e lid="280">
				<a>0.872496,0.488621,0</a>
				<d>-0.488621,0.872496,0</d>
			</e>
			<e lid="281">
				<a>0.85264,0.522499,0</a>
				<d>-0.522499,0.85264,0</d>
			</e>
			<e lid="282">
				<a>0.85264,0.522499,0</a>
				<d>-0.522499,0.85264,0</d>
			</e>
			<e lid="283">
				<a>0.85264,0.522499,0</a>
				<d>-0.522499,0.85264,0</d>
			</e>
			<e lid="284">
				<a>0.85264,0.522499,0</a>
				<d>-0.522499,0.85264,0</d>
			</e>
			<e lid="285">
				<a>0.85264,0.522499,0</a>
				<d>-0.522499,0.85264,0</d>
			</e>
			<e lid="286">
				<a>0.85264,0.522499,0</a>
				<d>-0.522499,0.85264,0</d>
			</e>
			<e lid="287">
				<a>0.85264,0.522499,0</a>
				<d>-0.522499,0.85264,0</d>
			</e>
			<e lid="288">
				<a>0.85264,0.522499,0</a>
				<d>-0.522499,0.85264,0</d>
			</e>
			<e lid="289">
				<a>0.85264,0.522499,0</a>
				<d>-0.522499,0.85264,0</d>
			</e>
			<e lid="290">
				<a>0.85264,0.522499,0</a>
				<d>-0.522499,0.85264,0</d>
			</e>
			<e lid="291">
				<a>0.85264,0.522499,0</a>
				<d>-0.522499,0.85264,0</d>
			</e>
			<e lid="292">
				<a>0.85264,0.522499,0</a>
				<d>-0.522499,0.85264,0</d>
			</e>
			<e lid="293">
				<a>0.85264,0.522499,0</a>
				<d>-0.522499,0.85264,0</d>
			</e>
			<e lid="294">
				<a>0.85264,0.522499,0</a>
				<d>-0.522499,0.85264,0</d>
			</e>
			<e lid="295">
				<a>0.85264,0.522499,0</a>
				<d>-0.522499,0.85264,0</d>
			</e>
			<e lid="296">
				<a>0.85264,0.522499,0</a>
				<d>-0.522499,0.85264,0</d>
			</e>
			<e lid="297">
				<a>0.85264,0.522499,0</a>
				<d>-0.522499,0.85264,0</d>
			</e>
			<e lid="298">
				<a>0.85264,0.522499,0</a>
				<d>-0.522499,0.85264,0</d>
			</e>
			<e lid="299">
				<a>0.85264,0.522499,0</a>
				<d>-0.522499,0.85264,0</d>
			</e>
			<e lid="300">
				<a>0.85264,0.522499,0</a>
				<d>-0.522499,0.85264,0</d>
			</e>
			<e lid="301">
				<a>0.83147,0.55557,0</a>
				<d>-0.55557,0.83147,0</d>
			</e>
			<e lid="302">
				<a>0.83147,0.55557,0</a>
				<d>-0.55557,0.83147,0</d>
			</e>
			<e lid="303">
				<a>0.83147,0.55557,0</a>
				<d>-0.55557,0.83147,0</d>
			</e>
			<e lid="304">
				<a>0.83147,0.55557,0</a>
				<d>-0.55557,0.83147,0</d>
			</e>
			<e lid="305">
				<a>0.83147,0.55557,0</a>
				<d>-0.55557,0.83147,0</d>
			</e>
			<e lid="306">
				<a>0.83147,0.55557,0</a>
				<d>-0.55557,0.83147,0</d>
			</e>
			<e lid="307">
				<a>0.83147,0.55557,0</a>
				<d>-0.55557,0.83147,0</d>
			</e>
			<e lid="308">
				<a>0.83147,0.55557,0</a>
				<d>-0.55557,0.83147,0</d>
			</e>
			<e lid="309">
				<a>0.83147,0.55557,0</a>
				<d>-0.55557,0.83147,0</d>
			</e>
			<e lid="310">
				<a>0.83147,0.55557,0</a>
				<d>-0.55557,0.83147,0</d>
			</e>
			<e lid="311">
				<a>0.83147,0.55557,0</a>
				<d>-0.55557,0.83147,0</d>
			</e>
			<e lid="312">
				<a>0.83147,0.55557,0</a>
				<d>-0.55557,0.83147,0</d>
			</e>
			<e lid="313">
				<a>0.83147,0.55557,0</a>
				<d>-0.55557,0.83147,0</d>
			</e>
			<e lid="314">
				<a>0.83147,0.55557,0</a>
				<d>-0.55557,0.83147,0</d>
			</e>
			<e lid="315">
				<a>0.83147,0.55557,0</a>
				<d>-0.55557,0.83147,0</d>
			</e>
			<e lid="316">
				<a>0.83147,0.55557,0</a>
				<d>-0.55557,0.83147,0</d>
			</e>
			<e lid="317">
				<a>0.83147,0.55557,0</a>
				<d>-0.55557,0.83147,0</d>
			</e>
			<e lid="318">
				<a>0.83147,0.55557,0</a>
				<d>-0.55557,0.83147,0</d>
			</e>
			<e lid="319">
				<a>0.83147,0.55557,0</a>
				<d>-0.55557,0.83147,0</d>
			</e>
			<e lid="320">
				<a>0.83147,0.55557,0</a>
				<d>-0.55557,0.83147,0</d>
			</e>
			<e lid="321">
				<a>0.809017,0.587785,0</a>
				<d>-0.587785,0.809017,0</d>
			</e>
			<e lid="322">
				<a>0.809017,0.587785,0</a>
				<d>-0.587785,0.809017,0</d>
			</e>
			<e lid="323">
				<a>0.809017,0.587785,0</a>
				<d>-0.587785,0.809017,0</d>
			</e>
			<e lid="324">
				<a>0.809017,0.587785,0</a>
				<d>-0.587785,0.809017,0</d>
			</e>
			<e lid="325">
				<a>0.809017,0.587785,0</a>
				<d>-0.587785,0.809017,0</d>
			</e>
			<e lid="326">
				<a>0.809017,0.587785,0</a>
				<d>-0.587785,0.809017,0</d>
			</e>
			<e lid="327">
				<a>0.809017,0.587785,0</a>
				<d>-0.587785,0.809017,0</d>
			</e>
			<e lid="328">
				<a>0.809017,0.587785,0</a>
				<d>-0.587785,0.809017,0</d>
			</e>
			<e lid="329">
				<a>0.809017,0.587785,0</a>
				<d>-0.587785,0.809017,0</d>
			</e>
			<e lid="330">
				<a>0.809017,0.587785,0</a>
				<d>-0.587785,0.809017,0</d>
			</e>
			<e lid="331">
				<a>0.809017,0.587785,0</a>
				<d>-0.587785,0.809017,0</d>
			</e>
			<e lid="332">
				<a>0.809017,0.587785,0</a>
				<d>-0.587785,0.809017,0</d>
			</e>
			<e lid="333">
				<a>0.809017,0.587785,0</a>
				<d>-0.587785,0.809017,0</d>
			</e>
			<e lid="334">
				<a>0.809017,0.587785,0</a>
				<d>-0.587785,0.809017,0</d>
			</e>
			<e lid="335">
				<a>0.809017,0.587785,0</a>
				<d>-0.587785,0.809017,0</d>
			</e>
			<e lid="336">
				<a>0.809017,0.587785,0</a>
				<d>-0.587785,0.809017,0</d>
			</e>
			<e lid="337">
				<a>0.809017,0.587785,0</a>
				<d>-0.587785,0.809017,0</d>
			</e>
			<e lid="338">
				<a>0.809017,0.587785,0</a>
				<d>-0.587785,0.809017,0</d>
			</e>
			<e lid="339">
				<a>0.809017,0.587785,0</a>
				<d>-0.587785,0.809017,0</d>
			</e>
			<e lid="340">
				<a>0.809017,0.587785,0</a>
				<d>-0.587785,0.809017,0</d>
			</e>
			<e lid="341">
				<a>0.785317,0.619094,0</a>
				<d>-0.619094,0.785317,0</d>
			</e>
			<e lid="342">
				<a>0.785317,0.619094,0</a>
				<d>-0.619094,0.785317,0</d>
			</e>
			<e lid="343">
				<a>0.785317,0.619094,0</a>
				<d>-0.619094,0.785317,0</d>
			</e>
			<e lid="344">
				<a>0.785317,0.619094,0</a>
				<d>-0.619094,0.785317,0</d>
			</e>
			<e lid="345">
				<a>0.785317,0.619094,0</a>
				<d>-0.619094,0.785317,0</d>
			</e>
			<e lid="346">
				<a>0.785317,0.619094,0</a>
				<d>-0.619094,0.785317,0</d>
			</e>
			<e lid="347">
				<a>0.785317,0.619094,0</a>
				<d>-0.619094,0.785317,0</d>
			</e>
			<e lid="348">
				<a>0.785317,0.619094,0</a>
				<d>-0.619094,0.785317,0</d>
			</e>
			<e lid="349">
				<a>0.785317,0.619094,0</a>
				<d>-0.619094,0.785317,0</d>
			</e>
			<e lid="350">
				<a>0.785317,0.619094,0</a>
				<d>-0.619094,0.785317,0</d>
			</e>
			<e lid="351">
				<a>0.785317,0.619094,0</a>
				<d>-0.619094,0.785317,0</d>
			</e>
			<e lid="352">
				<a>0.785317,0.619094,0</a>
				<d>-0.619094,0.785317,0</d>
			</e>
			<e lid="353">
				<a>0.785317,0.619094,0</a>
				<d>-0.619094,0.785317,0</d>
			</e>
			<e lid="354">
				<a>0.785317,0.619094,0</a>
				<d>-0.619094,0.785317,0</d>
			</e>
			<e lid="355">
				<a>0.785317,0.619094,0</a>
				<d>-0.619094,0.785317,0</d>
			</e>
			<e lid="356">
				<a>0.785317,0.619094,0</a>
				<d>-0.619094,0.785317,0</d>
			</e>
			<e lid="357">
				<a>0.785317,0.619094,0</a>
				<d>-0.619094,0.785317,0</d>
			</e>
			<e lid="358">
				<a>0.785317,0.619094,0</a>
				<d>-0.619094,0.785317,0</d>
			</e>
			<e lid="359">
				<a>0.785317,0.619094,0</a>
				<d>-0.619094,0.785317,0</d>
			</e>
			<e lid="360">
				<a>0.785317,0.619094,0</a>
				<d>-0.619094,0.785317,0</d>
			</e>
			<e lid="361">
				<a>0.760406,0.649448,0</a>
				<d>-0.649448,0.760406,0</d>
			</e>
			<e lid="362">
				<a>0.760406,0.649448,0</a>
				<d>-0.649448,0.760406,0</d>
			</e>
			<e lid="363">
				<a>0.760406,0.649448,0</a>
				<d>-0.649448,0.760406,0</d>
			</e>
			<e lid="364">
				<a>0.760406,0.649448,0</a>
				<d>-0.649448,0.760406,0</d>
			</e>
			<e lid="365">
				<a>0.760406,0.649448,0</a>
				<d>-0.649448,0.760406,0</d>
			</e>
			<e lid="366">
				<a>0.760406,0.649448,0</a>
				<d>-0.649448,0.760406,0</d>
			</e>
			<e lid="367">
				<a>0.760406,0.649448,0</a>
				<d>-0.649448,0.760406,0</d>
			</e>
			<e lid="368">
				<a>0.760406,0.649448,0</a>
				<d>-0.649448,0.760406,0</d>
			</e>
			<e lid="369">
				<a>0.760406,0.649448,0</a>
				<d>-0.649448,0.760406,0</d>
			</e>
			<e lid="370">
				<a>0.760406,0.649448,0</a>
				<d>-0.649448,0.760406,0</d>
			</e>
			<e lid="371">
				<a>0.760406,0.649448,0</a>
				<d>-0.649448,0.760406,0</d>
			</e>
			<e lid="372">
				<a>0.760406,0.649448,0</a>
				<d>-0.649448,0.760406,0</d>
			</e>
			<e lid="373">
				<a>0.760406,0.649448,0</a>
				<d>-0.649448,0.760406,0</d>
			</e>
			<e lid="374">
				<a>0.760406,0.649448,0</a>
				<d>-0.649448,0.760406,0</d>
			</e>
			<e lid="375">
				<a>0.760406,0.649448,0</a>
				<d>-0.649448,0.760406,0</d>
			</e>
			<e lid="376">
				<a>0.760406,0.649448,0</a>
				<d>-0.649448,0.760406,0</d>
			</e>
			<e lid="377">
				<a>0.760406,0.649448,0</a>
				<d>-0.649448,0.760406,0</d>
			</e>
			<e lid="378">
				<a>0.760406,0.649448,0</a>
				<d>-0.649448,0.760406,0</d>
			</e>
			<e lid="379">
				<a>0.760406,0.649448,0</a>
				<d>-0.649448,0.760406,0</d>
			</e>
			<e lid="380">
				<a>0.760406,0.649448,0</a>
				<d>-0.649448,0.760406,0</d>
			</e>
			<e lid="381">
				<a>0.734323,0.678801,0</a>
				<d>-0.678801,0.734323,0</d>
			</e>
			<e lid="382">
				<a>0.734323,0.678801,0</a>
				<d>-0.678801,0.734323,0</d>
			</e>
			<e lid="383">
				<a>0.734323,0.678801,0</a>
				<d>-0.678801,0.734323,0</d>
			</e>
			<e lid="384">
				<a>0.734323,0.678801,0</a>
				<d>-0.678801,0.734323,0</d>
			</e>
			<e lid="385">
				<a>0.734323,0.678801,0</a>
				<d>-0.678801,0.734323,0</d>
			</e>
			<e lid="386">
				<a>0.734323,0.678801,0</a>
				<d>-0.678801,0.734323,0</d>
			</e>
			<e lid="387">
				<a>0.734323,0.678801,0</a>
				<d>-0.678801,0.734323,0</d>
			</e>
			<e lid="388">
				<a>0.734323,0.678801,0</a>
				<d>-0.678801,0.734323,0</d>
			</e>
			<e lid="389">
				<a>0.734323,0.678801,0</a>
				<d>-0.678801,0.734323,0</d>
			</e>
			<e lid="390">
				<a>0.734323,0.678801,0</a>
				<d>-0.678801,0.734323,0</d>
			</e>
			<e lid="391">
				<a>0.734323,0.678801,0</a>
				<d>-0.678801,0.734323,0</d>
			</e>
			<e lid="392">
				<a>0.734323,0.678801,0</a>
				<d>-0.678801,0.734323,0</d>
			</e>
			<e lid="393">
				<a>0.734323,0.678801,0</a>
				<d>-0.678801,0.734323,0</d>
			</e>
			<e lid="394">
				<a>0.734323,0.678801,0</a>
				<d>-0.678801,0.734323,0</d>
			</e>
			<e lid="395">
				<a>0.734323,0.678801,0</a>
				<d>-0.678801,0.734323,0</d>
			</e>
			<e lid="396">
				<a>0.734323,0.678801,0</a>
				<d>-0.678801,0.734323,0</d>
			</e>
			<e lid="397">
				<a>0.734323,0.678801,0</a>
				<d>-0.678801,0.734323,0</d>
			</e>
			<e lid="398">
				<a>0.734323,0.678801,0</a>
				<d>-0.678801,0.734323,0</d>
			</e>
			<e lid="399">
				<a>0.734323,0.678801,0</a>
				<d>-0.678801,0.734323,0</d>
			</e>
			<e lid="400">
				<a>0.734323,0.678801,0</a>
				<d>-0.678801,0.734323,0</d>
			</e>
			<e lid="401">
				<a>0.707107,0.707107,0</a>
				<d>-0.707107,0.707107,0</d>
			</e>
			<e lid="402">
				<a>0.707107,0.707107,0</a>
				<d>-0.707107,0.707107,0</d>
			</e>
			<e lid="403">
				<a>0.707107,0.707107,0</a>
				<d>-0.707107,0.707107,0</d>
			</e>
			<e lid="404">
				<a>0.707107,0.707107,0</a>
				<d>-0.707107,0.707107,0</d>
			</e>
			<e lid="405">
				<a>0.707107,0.707107,0</a>
				<d>-0.707107,0.707107,0</d>
			</e>
			<e lid="406">
				<a>0.707107,0.707107,0</a>
				<d>-0.707107,0.707107,0</d>
			</e>
			<e lid="407">
				<a>0.707107,0.707107,0</a>
				<d>-0.707107,0.707107,0</d>
			</e>
			<e lid="408">
				<a>0.707107,0.707107,0</a>
				<d>-0.707107,0.707107,0</d>
			</e>
			<e lid="409">
				<a>0.707107,0.707107,0</a>
				<d>-0.707107,0.707107,0</d>
			</e>
			<e lid="410">
				<a>0.707107,0.707107,0</a>
				<d>-0.707107,0.707107,0</d>
			</e>
			<e lid="411">
				<a>0.707107,0.707107,0</a>
				<d>-0.707107,0.707107,0</d>
			</e>
			<e lid="412">
				<a>0.707107,0.707107,0</a>
				<d>-0.707107,0.707107,0</d>
			</e>
			<e lid="413">
				<a>0.707107,0.707107,0</a>
				<d>-0.707107,0.707107,0</d>
			</e>
			<e lid="414">
				<a>0.707107,0.707107,0</a>
				<d>-0.707107,0.707107,0</d>
			</e>
			<e lid="415">
				<a>0.707107,0.707107,0</a>
				<d>-0.707107,0.707107,0</d>
			</e>
			<e lid="416">
				<a>0.707107,0.707107,0</a>
				<d>-0.707107,0.707107,0</d>
			</e>
			<e lid="417">
				<a>0.707107,0.707107,0</a>
				<d>-0.707107,0.707107,0</d>
			</e>
			<e lid="418">
				<a>0.707107,0.707107,0</a>
				<d>-0.707107,0.707107,0</d>
			</e>
			<e lid="419">
				<a>0.707107,0.707107,0</a>
				<d>-0.707107,0.707107,0</d>
			</e>
			<e lid="420">
				<a>0.707107,0.707107,0</a>
				<d>-0.707107,0.707107,0</d>
			</e>
			<e lid="421">
				<a>0.678801,0.734322,0</a>
				<d>-0.734322,0.678801,0</d>
			</e>
			<e lid="422">
				<a>0.678801,0.734322,0</a>
				<d>-0.734322,0.678801,0</d>
			</e>
			<e lid="423">
				<a>0.678801,0.734322,0</a>
				<d>-0.734322,0.678801,0</d>
			</e>
			<e lid="424">
				<a>0.678801,0.734322,0</a>
				<d>-0.734322,0.678801,0</d>
			</e>
			<e lid="425">
				<a>0.678801,0.734322,0</a>
				<d>-0.734322,0.678801,0</d>
			</e>
			<e lid="426">
				<a>0.678801,0.734322,0</a>
				<d>-0.734322,0.678801,0</d>
			</e>
			<e lid="427">
				<a>0.678801,0.734322,0</a>
				<d>-0.734322,0.678801,0</d>
			</e>
			<e lid="428">
				<a>0.678801,0.734322,0</a>
				<d>-0.734322,0.678801,0</d>
			</e>
			<e lid="429">
				<a>0.678801,0.734322,0</a>
				<d>-0.734322,0.678801,0</d>
			</e>
			<e lid="430">
				<a>0.678801,0.734322,0</a>
				<d>-0.734322,0.678801,0</d>
			</e>
			<e lid="431">
				<a>0.678801,0.734322,0</a>
				<d>-0.734322,0.678801,0</d>
			</e>
			<e lid="432">
				<a>0.678801,0.734322,0</a>
				<d>-0.734322,0.678801,0</d>
			</e>
			<e lid="433">
				<a>0.678801,0.734322,0</a>
				<d>-0.734322,0.678801,0</d>
			</e>
			<e lid="434">
				<a>0.678801,0.734322,0</a>
				<d>-0.734322,0.678801,0</d>
			</e>
			<e lid="435">
				<a>0.678801,0.734322,0</a>
				<d>-0.734322,0.678801,0</d>
			</e>
			<e lid="436">
				<a>0.678801,0.734322,0</a>
				<d>-0.734322,0.678801,0</d>
			</e>
			<e lid="437">
				<a>0.678801,0.734322,0</a>
				<d>-0.734322,0.678801,0</d>
			</e>
			<e lid="438">
				<a>0.678801,0.734322,0</a>
				<d>-0.734322,0.678801,0</d>
			</e>
			<e lid="439">
				<a>0.678801,0.734322,0</a>
				<d>-0.734322,0.678801,0</d>
			</e>
			<e lid="440">
				<a>0.678801,0.734322,0</a>
				<d>-0.734322,0.678801,0</d>
			</e>
			<e lid="441">
				<a>0.649448,0.760406,0</a>
				<d>-0.760406,0.649448,0</d>
			</e>
			<e lid="442">
				<a>0.649448,0.760406,0</a>
				<d>-0.760406,0.649448,0</d>
			</e>
			<e lid="443">
				<a>0.649448,0.760406,0</a>
				<d>-0.760406,0.649448,0</d>
			</e>
			<e lid="444">
				<a>0.649448,0.760406,0</a>
				<d>-0.760406,0.649448,0</d>
			</e>
			<e lid="445">
				<a>0.649448,0.760406,0</a>
				<d>-0.760406,0.649448,0</d>
			</e>
			<e lid="446">
				<a>0.649448,0.760406,0</a>
				<d>-0.760406,0.649448,0</d>
			</e>
			<e lid="447">
				<a>0.649448,0.760406,0</a>
				<d>-0.760406,0.649448,0</d>
			</e>
			<e lid="448">
				<a>0.649448,0.760406,0</a>
				<d>-0.760406,0.649448,0</d>
			</e>
			<e lid="449">
				<a>0.649448,0.760406,0</a>
				<d>-0.760406,0.649448,0</d>
			</e>
			<e lid="450">
				<a>0.649448,0.760406,0</a>
				<d>-0.760406,0.649448,0</d>
			</e>
			<e lid="451">
				<a>0.649448,0.760406,0</a>
				<d>-0.760406,0.649448,0</d>
			</e>
			<e lid="452">
				<a>0.649448,0.760406,0</a>
				<d>-0.760406,0.649448,0</d>
			</e>
			<e lid="453">
				<a>0.649448,0.760406,0</a>
				<d>-0.760406,0.649448,0</d>
			</e>
			<e lid="454">
				<a>0.649448,0.760406,0</a>
				<d>-0.760406,0.649448,0</d>
			</e>
			<e lid="455">
				<a>0.649448,0.760406,0</a>
				<d>-0.760406,0.649448,0</d>
			</e>
			<e lid="456">
				<a>0.649448,0.760406,0</a>
				<d>-0.760406,0.649448,0</d>
			</e>
			<e lid="457">
				<a>0.649448,0.760406,0</a>
				<d>-0.760406,0.649448,0</d>
			</e>
			<e lid="458">
				<a>0.649448,0.760406,0</a>
				<d>-0.760406,0.649448,0</d>
			</e>
			<e lid="459">
				<a>0.649448,0.760406,0</a>
				<d>-0.760406,0.649448,0</d>
			</e>
			<e lid="460">
				<a>0.649448,0.760406,0</a>
				<d>-0.760406,0.649448,0</d>
			</e>
			<e lid="461">
				<a>0.619094,0.785317,0</a>
				<d>-0.785317,0.619094,0</d>
			</e>
			<e lid="462">
				<a>0.619094,0.785317,0</a>
				<d>-0.785317,0.619094,0</d>
			</e>
			<e lid="463">
				<a>0.619094,0.785317,0</a>
				<d>-0.785317,0.619094,0</d>
			</e>
			<e lid="464">
				<a>0.619094,0.785317,0</a>
				<d>-0.785317,0.619094,0</d>
			</e>
			<e lid="465">
				<a>0.619094,0.785317,0</a>
				<d>-0.785317,0.619094,0</d>
			</e>
			<e lid="466">
				<a>0.619094,0.785317,0</a>
				<d>-0.785317,0.619094,0</d>
			</e>
			<e lid="467">
				<a>0.619094,0.785317,0</a>
				<d>-0.785317,0.619094,0</d>
			</e>
			<e lid="468">
				<a>0.619094,0.785317,0</a>
				<d>-0.785317,0.619094,0</d>
			</e>
			<e lid="469">
				<a>0.619094,0.785317,0</a>
				<d>-0.785317,0.619094,0</d>
			</e>
			<e lid="470">
				<a>0.619094,0.785317,0</a>
				<d>-0.785317,0.619094,0</d>
			</e>
			<e lid="471">
				<a>0.619094,0.785317,0</a>
				<d>-0.785317,0.619094,0</d>
			</e>
			<e lid="472">
				<a>0.619094,0.785317,0</a>
				<d>-0.785317,0.619094,0</d>
			</e>
			<e lid="473">
				<a>0.619094,0.785317,0</a>
				<d>-0.785317,0.619094,0</d>
			</e>
			<e lid="474">
				<a>0.619094,0.785317,0</a>
				<d>-0.785317,0.619094,0</d>
			</e>
			<e lid="475">
				<a>0.619094,0.785317,0</a>
				<d>-0.785317,0.619094,0</d>
			</e>
			<e lid="476">
				<a>0.619094,0.785317,0</a>
				<d>-0.785317,0.619094,0</d>
			</e>
			<e lid="477">
				<a>0.619094,0.785317,0</a>
				<d>-0.785317,0.619094,0</d>
			</e>
			<e lid="478">
				<a>0.619094,0.785317,0</a>
				<d>-0.785317,0.619094,0</d>
			</e>
			<e lid="479">
				<a>0.619094,0.785317,0</a>
				<d>-0.785317,0.619094,0</d>
			</e>
			<e lid="480">
				<a>0.619094,0.785317,0</a>
				<d>-0.785317,0.619094,0</d>
			</e>
			<e lid="481">
				<a>0.587785,0.809017,0</a>
				<d>-0.809017,0.587785,0</d>
			</e>
			<e lid="482">
				<a>0.587785,0.809017,0</a>
				<d>-0.809017,0.587785,0</d>
			</e>
			<e lid="483">
				<a>0.587785,0.809017,0</a>
				<d>-0.809017,0.587785,0</d>
			</e>
			<e lid="484">
				<a>0.587785,0.809017,0</a>
				<d>-0.809017,0.587785,0</d>
			</e>
			<e lid="485">
				<a>0.587785,0.809017,0</a>
				<d>-0.809017,0.587785,0</d>
			</e>
			<e lid="486">
				<a>0.587785,0.809017,0</a>
				<d>-0.809017,0.587785,0</d>
			</e>
			<e lid="487">
				<a>0.587785,0.809017,0</a>
				<d>-0.809017,0.587785,0</d>
			</e>
			<e lid="488">
				<a>0.587785,0.809017,0</a>
				<d>-0.809017,0.587785,0</d>
			</e>
			<e lid="489">
				<a>0.587785,0.809017,0</a>
				<d>-0.809017,0.587785,0</d>
			</e>
			<e lid="490">
				<a>0.587785,0.809017,0</a>
				<d>-0.809017,0.587785,0</d>
			</e>
			<e lid="491">
				<a>0.587785,0.809017,0</a>
				<d>-0.809017,0.587785,0</d>
			</e>
			<e lid="492">
				<a>0.587785,0.809017,0</a>
				<d>-0.809017,0.587785,0</d>
			</e>
			<e lid="493">
				<a>0.587785,0.809017,0</a>
				<d>-0.809017,0.587785,0</d>
			</e>
			<e lid="494">
				<a>0.587785,0.809017,0</a>
				<d>-0.809017,0.587785,0</d>
			</e>
			<e lid="495">
				<a>0.587785,0.809017,0</a>
				<d>-0.809017,0.587785,0</d>
			</e>
			<e lid="496">
				<a>0.587785,0.809017,0</a>
				<d>-0.809017,0.587785,0</d>
			</e>
			<e lid="497">
				<a>0.587785,0.809017,0</a>
				<d>-0.809017,0.587785,0</d>
			</e>
			<e lid="498">
				<a>0.587785,0.809017,0</a>
				<d>-0.809017,0.587785,0</d>
			</e>
			<e lid="499">
				<a>0.587785,0.809017,0</a>
				<d>-0.809017,0.587785,0</d>
			</e>
			<e lid="500">
				<a>0.587785,0.809017,0</a>
				<d>-0.809017,0.587785,0</d>
			</e>
			<e lid="501">
				<a>0.55557,0.83147,0</a>
				<d>-0.83147,0.55557,0</d>
			</e>
			<e lid="502">
				<a>0.55557,0.83147,0</a>
				<d>-0.83147,0.55557,0</d>
			</e>
			<e lid="503">
				<a>0.55557,0.83147,0</a>
				<d>-0.83147,0.55557,0</d>
			</e>
			<e lid="504">
				<a>0.55557,0.83147,0</a>
				<d>-0.83147,0.55557,0</d>
			</e>
			<e lid="505">
				<a>0.55557,0.83147,0</a>
				<d>-0.83147,0.55557,0</d>
			</e>
			<e lid="506">
				<a>0.55557,0.83147,0</a>
				<d>-0.83147,0.55557,0</d>
			</e>
			<e lid="507">
				<a>0.55557,0.83147,0</a>
				<d>-0.83147,0.55557,0</d>
			</e>
			<e lid="508">
				<a>0.55557,0.83147,0</a>
				<d>-0.83147,0.55557,0</d>
			</e>
			<e lid="509">
				<a>0.55557,0.83147,0</a>
				<d>-0.83147,0.55557,0</d>
			</e>
			<e lid="510">
				<a>0.55557,0.83147,0</a>
				<d>-0.83147,0.55557,0</d>
			</e>
			<e lid="511">
				<a>0.55557,0.83147,0</a>
				<d>-0.83147,0.55557,0</d>
			</e>
			<e lid="512">
				<a>0.55557,0.83147,0</a>
				<d>-0.83147,0.55557,0</d>
			</e>
			<e lid="513">
				<a>0.55557,0.83147,0</a>
				<d>-0.83147,0.55557,0</d>
			</e>
			<e lid="514">
				<a>0.55557,0.83147,0</a>
				<d>-0.83147,0.55557,0</d>
			</e>
			<e lid="515">
				<a>0.55557,0.83147,0</a>
				<d>-0.83147,0.55557,0</d>
			</e>
			<e lid="516">
				<a>0.55557,0.83147,0</a>
				<d>-0.83147,0.55557,0</d>
			</e>
			<e lid="517">
				<a>0.55557,0.83147,0</a>
				<d>-0.83147,0.55557,0</d>
			</e>
			<e lid="518">
				<a>0.55557,0.83147,0</a>
				<d>-0.83147,0.55557,0</d>
			</e>
			<e lid="519">
				<a>0.55557,0.83147,0</a>
				<d>-0.83147,0.55557,0</d>
			</e>
			<e lid="520">
				<a>0.55557,0.83147,0</a>
				<d>-0.83147,0.55557,0</d>
			</e>
			<e lid="521">
				<a>0.522499,0.85264,0</a>
				<d>-0.85264,0.522499,0</d>
			</e>
			<e lid="522">
				<a>0.522499,0.85264,0</a>
				<d>-0.85264,0.522499,0</d>
			</e>
			<e lid="523">
				<a>0.522499,0.85264,0</a>
				<d>-0.85264,0.522499,0</d>
			</e>
			<e lid="524">
				<a>0.522499,0.85264,0</a>
				<d>-0.85264,0.522499,0</d>
			</e>
			<e lid="525">
				<a>0.522499,0.85264,0</a>
				<d>-0.85264,0.522499,0</d>
			</e>
			<e lid="526">
				<a>0.522499,0.85264,0</a>
				<d>-0.85264,0.522499,0</d>
			</e>
			<e lid="527">
				<a>0.522499,0.85264,0</a>
				<d>-0.85264,0.522499,0</d>
			</e>
			<e lid="528">
				<a>0.522499,0.85264,0</a>
				<d>-0.85264,0.522499,0</d>
			</e>
			<e lid="529">
				<a>0.522499,0.85264,0</a>
				<d>-0.85264,0.522499,0</d>
			</e>
			<e lid="530">
				<a>0.522499,0.85264,0</a>
				<d>-0.85264,0.522499,0</d>
			</e>
			<e lid="531">
				<a>0.522499,0.85264,0</a>
				<d>-0.85264,0.522499,0</d>
			</e>
			<e lid="532">
				<a>0.522499,0.85264,0</a>
				<d>-0.85264,0.522499,0</d>
			</e>
			<e lid="533">
				<a>0.522499,0.85264,0</a>
				<d>-0.85264,0.522499,0</d>
			</e>
			<e lid="534">
				<a>0.522499,0.85264,0</a>
				<d>-0.85264,0.522499,0</d>
			</e>
			<e lid="535">
				<a>0.522499,0.85264,0</a>
				<d>-0.85264,0.522499,0</d>
			</e>
			<e lid="536">
				<a>0.522499,0.85264,0</a>
				<d>-0.85264,0.522499,0</d>
			</e>
			<e lid="537">
				<a>0.522499,0.85264,0</a>
				<d>-0.85264,0.522499,0</d>
			</e>
			<e lid="538">
				<a>0.522499,0.85264,0</a>
				<d>-0.85264,0.522499,0</d>
			</e>
			<e lid="539">
				<a>0.522499,0.85264,0</a>
				<d>-0.85264,0.522499,0</d>
			</e>
			<e lid="540">
				<a>0.522499,0.85264,0</a>
				<d>-0.85264,0.522499,0</d>
			</e>
			<e lid="541">
				<a>0.488621,0.872496,0</a>
				<d>-0.872496,0.488621,0</d>
			</e>
			<e lid="542">
				<a>0.488621,0.872496,0</a>
				<d>-0.872496,0.488621,0</d>
			</e>
			<e lid="543">
				<a>0.488621,0.872496,0</a>
				<d>-0.872496,0.488621,0</d>
			</e>
			<e lid="544">
				<a>0.488621,0.872496,0</a>
				<d>-0.872496,0.488621,0</d>
			</e>
			<e lid="545">
				<a>0.488621,0.872496,0</a>
				<d>-0.872496,0.488621,0</d>
			</e>
			<e lid="546">
				<a>0.488621,0.872496,0</a>
				<d>-0.872496,0.488621,0</d>
			</e>
			<e lid="547">
				<a>0.488621,0.872496,0</a>
				<d>-0.872496,0.488621,0</d>
			</e>
			<e lid="548">
				<a>0.488621,0.872496,0</a>
				<d>-0.872496,0.488621,0</d>
			</e>
			<e lid="549">
				<a>0.488621,0.872496,0</a>
				<d>-0.872496,0.488621,0</d>
			</e>
			<e lid="550">
				<a>0.488621,0.872496,0</a>
				<d>-0.872496,0.488621,0</d>
			</e>
			<e lid="551">
				<a>0.488621,0.872496,0</a>
				<d>-0.872496,0.488621,0</d>
			</e>
			<e lid="552">
				<a>0.488621,0.872496,0</a>
				<d>-0.872496,0.488621,0</d>
			</e>
			<e lid="553">
				<a>0.488621,0.872496,0</a>
				<d>-0.872496,0.488621,0</d>
			</e>
			<e lid="554">
				<a>0.488621,0.872496,0</a>
				<d>-0.872496,0.488621,0</d>
			</e>
			<e lid="555">
				<a>0.488621,0.872496,0</a>
				<d>-0.872496,0.488621,0</d>
			</e>
			<e lid="556">
				<a>0.488621,0.872496,0</a>
				<d>-0.872496,0.488621,0</d>
			</e>
			<e lid="557">
				<a>0.488621,0.872496,0</a>
				<d>-0.872496,0.488621,0</d>
			</e>
			<e lid="558">
				<a>0.488621,0.872496,0</a>
				<d>-0.872496,0.488621,0</d>
			</e>
			<e lid="559">
				<a>0.488621,0.872496,0</a>
				<d>-0.872496,0.488621,0</d>
			</e>
			<e lid="560">
				<a>0.488621,0.872496,0</a>
				<d>-0.872496,0.488621,0</d>
			</e>
			<e lid="561">
				<a>0.453991,0.891007,0</a>
				<d>-0.891007,0.453991,0</d>
			</e>
			<e lid="562">
				<a>0.453991,0.891007,0</a>
				<d>-0.891007,0.453991,0</d>
			</e>
			<e lid="563">
				<a>0.453991,0.891007,0</a>
				<d>-0.891007,0.453991,0</d>
			</e>
			<e lid="564">
				<a>0.453991,0.891007,0</a>
				<d>-0.891007,0.453991,0</d>
			</e>
			<e lid="565">
				<a>0.453991,0.891007,0</a>
				<d>-0.891007,0.453991,0</d>
			</e>
			<e lid="566">
				<a>0.453991,0.891007,0</a>
				<d>-0.891007,0.453991,0</d>
			</e>
			<e lid="567">
				<a>0.453991,0.891007,0</a>
				<d>-0.891007,0.453991,0</d>
			</e>
			<e lid="568">
				<a>0.453991,0.891007,0</a>
				<d>-0.891007,0.453991,0</d>
			</e>
			<e lid="569">
				<a>0.453991,0.891007,0</a>
				<d>-0.891007,0.453991,0</d>
			</e>
			<e lid="570">
				<a>0.453991,0.891007,0</a>
				<d>-0.891007,0.453991,0</d>
			</e>
			<e lid="571">
				<a>0.453991,0.891007,0</a>
				<d>-0.891007,0.453991,0</d>
			</e>
			<e lid="572">
				<a>0.453991,0.891007,0</a>
				<d>-0.891007,0.453991,0</d>
			</e>
			<e lid="573">
				<a>0.453991,0.891007,0</a>
				<d>-0.891007,0.453991,0</d>
			</e>
			<e lid="574">
				<a>0.453991,0.891007,0</a>
				<d>-0.891007,0.453991,0</d>
			</e>
			<e lid="575">
				<a>0.453991,0.891007,0</a>
				<d>-0.891007,0.453991,0</d>
			</e>
			<e lid="576">
				<a>0.453991,0.891007,0</a>
				<d>-0.891007,0.453991,0</d>
			</e>
			<e lid="577">
				<a>0.453991,0.891007,0</a>
				<d>-0.891007,0.453991,0</d>
			</e>
			<e lid="578">
				<a>0.453991,0.891007,0</a>
				<d>-0.891007,0.453991,0</d>
			</e>
			<e lid="579">
				<a>0.453991,0.891007,0</a>
				<d>-0.891007,0.453991,0</d>
			</e>
			<e lid="580">
				<a>0.453991,0.891007,0</a>
				<d>-0.891007,0.453991,0</d>
			</e>
			<e lid="581">
				<a>0.41866,0.908143,0</a>
				<d>-0.908143,0.41866,0</d>
			</e>
			<e lid="582">
				<a>0.41866,0.908143,0</a>
				<d>-0.908143,0.41866,0</d>
			</e>
			<e lid="583">
				<a>0.41866,0.908143,0</a>
				<d>-0.908143,0.41866,0</d>
			</e>
			<e lid="584">
				<a>0.41866,0.908143,0</a>
				<d>-0.908143,0.41866,0</d>
			</e>
			<e lid="585">
				<a>0.41866,0.908143,0</a>
				<d>-0.908143,0.41866,0</d>
			</e>
			<e lid="586">
				<a>0.41866,0.908143,0</a>
				<d>-0.908143,0.41866,0</d>
			</e>
			<e lid="587">
				<a>0.41866,0.908143,0</a>
				<d>-0.908143,0.41866,0</d>
			</e>
			<e lid="588">
				<a>0.41866,0.908143,0</a>
				<d>-0.908143,0.41866,0</d>
			</e>
			<e lid="589">
				<a>0.41866,0.908143,0</a>
				<d>-0.908143,0.41866,0</d>
			</e>
			<e lid="590">
				<a>0.41866,0.908143,0</a>
				<d>-0.908143,0.41866,0</d>
			</e>
			<e lid="591">
				<a>0.41866,0.908143,0</a>
				<d>-0.908143,0.41866,0</d>
			</e>
			<e lid="592">
				<a>0.41866,0.908143,0</a>
				<d>-0.908143,0.41866,0</d>
			</e>
			<e lid="593">
				<a>0.41866,0.908143,0</a>
				<d>-0.908143,0.41866,0</d>
			</e>
			<e lid="594">
				<a>0.41866,0.908143,0</a>
				<d>-0.908143,0.41866,0</d>
			</e>
			<e lid="595">
				<a>0.41866,0.908143,0</a>
				<d>-0.908143,0.41866,0</d>
			</e>
			<e lid="596">
				<a>0.41866,0.908143,0</a>
				<d>-0.908143,0.41866,0</d>
			</e>
			<e lid="597">
				<a>0.41866,0.908143,0</a>
				<d>-0.908143,0.41866,0</d>
			</e>
			<e lid="598">
				<a>0.41866,0.908143,0</a>
				<d>-0.908143,0.41866,0</d>
			</e>
			<e lid="599">
				<a>0.41866,0.908143,0</a>
				<d>-0.908143,0.41866,0</d>
			</e>
			<e lid="600">
				<a>0.41866,0.908143,0</a>
				<d>-0.908143,0.41866,0</d>
			</e>
			<e lid="601">
				<a>0.382683,0.92388,0</a>
				<d>-0.92388,0.382683,0</d>
			</e>
			<e lid="602">
				<a>0.382683,0.92388,0</a>
				<d>-0.92388,0.382683,0</d>
			</e>
			<e lid="603">
				<a>0.382683,0.92388,0</a>
				<d>-0.92388,0.382683,0</d>
			</e>
			<e lid="604">
				<a>0.382683,0.92388,0</a>
				<d>-0.92388,0.382683,0</d>
			</e>
			<e lid="605">
				<a>0.382683,0.92388,0</a>
				<d>-0.92388,0.382683,0</d>
			</e>
			<e lid="606">
				<a>0.382683,0.92388,0</a>
				<d>-0.92388,0.382683,0</d>
			</e>
			<e lid="607">
				<a>0.382683,0.92388,0</a>
				<d>-0.92388,0.382683,0</d>
			</e>
			<e lid="608">
				<a>0.382683,0.92388,0</a>
				<d>-0.92388,0.382683,0</d>
			</e>
			<e lid="609">
				<a>0.382683,0.92388,0</a>
				<d>-0.92388,0.382683,0</d>
			</e>
			<e lid="610">
				<a>0.382683,0.92388,0</a>
				<d>-0.92388,0.382683,0</d>
			</e>
			<e lid="611">
				<a>0.382683,0.92388,0</a>
				<d>-0.92388,0.382683,0</d>
			</e>
			<e lid="612">
				<a>0.382683,0.92388,0</a>
				<d>-0.92388,0.382683,0</d>
			</e>
			<e lid="613">
				<a>0.382683,0.92388,0</a>
				<d>-0.92388,0.382683,0</d>
			</e>
			<e lid="614">
				<a>0.382683,0.92388,0</a>
				<d>-0.92388,0.382683,0</d>
			</e>
			<e lid="615">
				<a>0.382683,0.92388,0</a>
				<d>-0.92388,0.382683,0</d>
			</e>
			<e lid="616">
				<a>0.382683,0.92388,0</a>
				<d>-0.92388,0.382683,0</d>
			</e>
			<e lid="617">
				<a>0.382683,0.92388,0</a>
				<d>-0.92388,0.382683,0</d>
			</e>
			<e lid="618">
				<a>0.382683,0.92388,0</a>
				<d>-0.92388,0.382683,0</d>
			</e>
			<e lid="619">
				<a>0.382683,0.92388,0</a>
				<d>-0.92388,0.382683,0</d>
			</e>
			<e lid="620">
				<a>0.382683,0.92388,0</a>
				<d>-0.92388,0.382683,0</d>
			</e>
			<e lid="621">
				<a>0.346117,0.938191,0</a>
				<d>-0.938191,0.346117,0</d>
			</e>
			<e lid="622">
				<a>0.346117,0.938191,0</a>
				<d>-0.938191,0.346117,0</d>
			</e>
			<e lid="623">
				<a>0.346117,0.938191,0</a>
				<d>-0.938191,0.346117,0</d>
			</e>
			<e lid="624">
				<a>0.346117,0.938191,0</a>
				<d>-0.938191,0.346117,0</d>
			</e>
			<e lid="625">
				<a>0.346117,0.938191,0</a>
				<d>-0.938191,0.346117,0</d>
			</e>
			<e lid="626">
				<a>0.346117,0.938191,0</a>
				<d>-0.938191,0.346117,0</d>
			</e>
			<e lid="627">
				<a>0.346117,0.938191,0</a>
				<d>-0.938191,0.346117,0</d>
			</e>
			<e lid="628">
				<a>0.346117,0.938191,0</a>
				<d>-0.938191,0.346117,0</d>
			</e>
			<e lid="629">
				<a>0.346117,0.938191,0</a>
				<d>-0.938191,0.346117,0</d>
			</e>
			<e lid="630">
				<a>0.346117,0.938191,0</a>
				<d>-0.938191,0.346117,0</d>
			</e>
			<e lid="631">
				<a>0.346117,0.938191,0</a>
				<d>-0.938191,0.346117,0</d>
			</e>
			<e lid="632">
				<a>0.346117,0.938191,0</a>
				<d>-0.938191,0.346117,0</d>
			</e>
			<e lid="633">
				<a>0.346117,0.938191,0</a>
				<d>-0.938191,0.346117,0</d>
			</e>
			<e lid="634">
				<a>0.346117,0.938191,0</a>
				<d>-0.938191,0.346117,0</d>
			</e>
			<e lid="635">
				<a>0.346117,0.938191,0</a>
				<d>-0.938191,0.346117,0</d>
			</e>
			<e lid="636">
				<a>0.346117,0.938191,0</a>
				<d>-0.938191,0.346117,0</d>
			</e>
			<e lid="637">
				<a>0.346117,0.938191,0</a>
				<d>-0.938191,0.346117,0</d>
			</e>
			<e lid="638">
				<a>0.346117,0.938191,0</a>
				<d>-0.938191,0.346117,0</d>
			</e>
			<e lid="639">
				<a>0.346117,0.938191,0</a>
				<d>-0.938191,0.346117,0</d>
			</e>
			<e lid="640">
				<a>0.346117,0.938191,0</a>
				<d>-0.938191,0.346117,0</d>
			</e>
			<e lid="641">
				<a>0.309017,0.951057,0</a>
				<d>-0.951057,0.309017,0</d>
			</e>
			<e lid="642">
				<a>0.309017,0.951057,0</a>
				<d>-0.951057,0.309017,0</d>
			</e>
			<e lid="643">
				<a>0.309017,0.951057,0</a>
				<d>-0.951057,0.309017,0</d>
			</e>
			<e lid="644">
				<a>0.309017,0.951057,0</a>
				<d>-0.951057,0.309017,0</d>
			</e>
			<e lid="645">
				<a>0.309017,0.951057,0</a>
				<d>-0.951057,0.309017,0</d>
			</e>
			<e lid="646">
				<a>0.309017,0.951057,0</a>
				<d>-0.951057,0.309017,0</d>
			</e>
			<e lid="647">
				<a>0.309017,0.951057,0</a>
				<d>-0.951057,0.309017,0</d>
			</e>
			<e lid="648">
				<a>0.309017,0.951057,0</a>
				<d>-0.951057,0.309017,0</d>
			</e>
			<e lid="649">
				<a>0.309017,0.951057,0</a>
				<d>-0.951057,0.309017,0</d>
			</e>
			<e lid="650">
				<a>0.309017,0.951057,0</a>
				<d>-0.951057,0.309017,0</d>
			</e>
			<e lid="651">
				<a>0.309017,0.951057,0</a>
				<d>-0.951057,0.309017,0</d>
			</e>
			<e lid="652">
				<a>0.309017,0.951057,0</a>
				<d>-0.951057,0.309017,0</d>
			</e>
			<e lid="653">
				<a>0.309017,0.951057,0</a>
				<d>-0.951057,0.309017,0</d>
			</e>
			<e lid="654">
				<a>0.309017,0.951057,0</a>
				<d>-0.951057,0.309017,0</d>
			</e>
			<e lid="655">
				<a>0.309017,0.951057,0</a>
				<d>-0.951057,0.309017,0</d>
			</e>
			<e lid="656">
				<a>0.309017,0.951057,0</a>
				<d>-0.951057,0.309017,0</d>
			</e>
			<e lid="657">
				<a>0.309017,0.951057,0</a>
				<d>-0.951057,0.309017,0</d>
			</e>
			<e lid="658">
				<a>0.309017,0.951057,0</a>
				<d>-0.951057,0.309017,0</d>
			</e>
			<e lid="659">
				<a>0.309017,0.951057,0</a>
				<d>-0.951057,0.309017,0</d>
			</e>
			<e lid="660">
				<a>0.309017,0.951057,0</a>
				<d>-0.951057,0.309017,0</d>
			</e>
			<e lid="661">
				<a>0.27144,0.962455,0</a>
				<d>-0.962455,0.27144,0</d>
			</e>
			<e lid="662">
				<a>0.27144,0.962455,0</a>
				<d>-0.962455,0.27144,0</d>
			</e>
			<e lid="663">
				<a>0.27144,0.962455,0</a>
				<d>-0.962455,0.27144,0</d>
			</e>
			<e lid="664">
				<a>0.27144,0.962455,0</a>
				<d>-0.962455,0.27144,0</d>
			</e>
			<e lid="665">
				<a>0.27144,0.962455,0</a>
				<d>-0.962455,0.27144,0</d>
			</e>
			<e lid="666">
				<a>0.27144,0.962455,0</a>
				<d>-0.962455,0.27144,0</d>
			</e>
			<e lid="667">
				<a>0.27144,0.962455,0</a>
				<d>-0.962455,0.27144,0</d>
			</e>
			<e lid="668">
				<a>0.27144,0.962455,0</a>
				<d>-0.962455,0.27144,0</d>
			</e>
			<e lid="669">
				<a>0.27144,0.962455,0</a>
				<d>-0.962455,0.27144,0</d>
			</e>
			<e lid="670">
				<a>0.27144,0.962455,0</a>
				<d>-0.962455,0.27144,0</d>
			</e>
			<e lid="671">
				<a>0.27144,0.962455,0</a>
				<d>-0.962455,0.27144,0</d>
			</e>
			<e lid="672">
				<a>0.27144,0.962455,0</a>
				<d>-0.962455,0.27144,0</d>
			</e>
			<e lid="673">
				<a>0.27144,0.962455,0</a>
				<d>-0.962455,0.27144,0</d>
			</e>
			<e lid="674">
				<a>0.27144,0.962455,0</a>
				<d>-0.962455,0.27144,0</d>
			</e>
			<e lid="675">
				<a>0.27144,0.962455,0</a>
				<d>-0.962455,0.27144,0</d>
			</e>
			<e lid="676">
				<a>0.27144,0.962455,0</a>
				<d>-0.962455,0.27144,0</d>
			</e>
			<e lid="677">
				<a>0.27144,0.962455,0</a>
				<d>-0.962455,0.27144,0</d>
			</e>
			<e lid="678">
				<a>0.27144,0.962455,0</a>
				<d>-0.962455,0.27144,0</d>
			</e>
			<e lid="679">
				<a>0.27144,0.962455,0</a>
				<d>-0.962455,0.27144,0</d>
			</e>
			<e lid="680">
				<a>0.27144,0.962455,0</a>
				<d>-0.962455,0.27144,0</d>
			</e>
			<e lid="681">
				<a>0.233445,0.97237,0</a>
				<d>-0.97237,0.233445,0</d>
			</e>
			<e lid="682">
				<a>0.233445,0.97237,0</a>
				<d>-0.97237,0.233445,0</d>
			</e>
			<e lid="683">
				<a>0.233445,0.97237,0</a>
				<d>-0.97237,0.233445,0</d>
			</e>
			<e lid="684">
				<a>0.233445,0.97237,0</a>
				<d>-0.97237,0.233445,0</d>
			</e>
			<e lid="685">
				<a>0.233445,0.97237,0</a>
				<d>-0.97237,0.233445,0</d>
			</e>
			<e lid="686">
				<a>0.233445,0.97237,0</a>
				<d>-0.97237,0.233445,0</d>
			</e>
			<e lid="687">
				<a>0.233445,0.97237,0</a>
				<d>-0.97237,0.233445,0</d>
			</e>
			<e lid="688">
				<a>0.233445,0.97237,0</a>
				<d>-0.97237,0.233445,0</d>
			</e>
			<e lid="689">
				<a>0.233445,0.97237,0</a>
				<d>-0.97237,0.233445,0</d>
			</e>
			<e lid="690">
				<a>0.233445,0.97237,0</a>
				<d>-0.97237,0.233445,0</d>
			</e>
			<e lid="691">
				<a>0.233445,0.97237,0</a>
				<d>-0.97237,0.233445,0</d>
			</e>
			<e lid="692">
				<a>0.233445,0.97237,0</a>
				<d>-0.97237,0.233445,0</d>
			</e>
			<e lid="693">
				<a>0.233445,0.97237,0</a>
				<d>-0.97237,0.233445,0</d>
			</e>
			<e lid="694">
				<a>0.233445,0.97237,0</a>
				<d>-0.97237,0.233445,0</d>
			</e>
			<e lid="695">
				<a>0.233445,0.97237,0</a>
				<d>-0.97237,0.233445,0</d>
			</e>
			<e lid="696">
				<a>0.233445,0.97237,0</a>
				<d>-0.97237,0.233445,0</d>
			</e>
			<e lid="697">
				<a>0.233445,0.97237,0</a>
				<d>-0.97237,0.233445,0</d>
			</e>
			<e lid="698">
				<a>0.233445,0.97237,0</a>
				<d>-0.97237,0.233445,0</d>
			</e>
			<e lid="699">
				<a>0.233445,0.97237,0</a>
				<d>-0.97237,0.233445,0</d>
			</e>
			<e lid="700">
				<a>0.233445,0.97237,0</a>
				<d>-0.97237,0.233445,0</d>
			</e>
			<e lid="701">
				<a>0.19509,0.980785,0</a>
				<d>-0.980785,0.19509,0</d>
			</e>
			<e lid="702">
				<a>0.19509,0.980785,0</a>
				<d>-0.980785,0.19509,0</d>
			</e>
			<e lid="703">
				<a>0.19509,0.980785,0</a>
				<d>-0.980785,0.19509,0</d>
			</e>
			<e lid="704">
				<a>0.19509,0.980785,0</a>
				<d>-0.980785,0.19509,0</d>
			</e>
			<e lid="705">
				<a>0.19509,0.980785,0</a>
				<d>-0.980785,0.19509,0</d>
			</e>
			<e lid="706">
				<a>0.19509,0.980785,0</a>
				<d>-0.980785,0.19509,0</d>
			</e>
			<e lid="707">
				<a>0.19509,0.980785,0</a>
				<d>-0.980785,0.19509,0</d>
			</e>
			<e lid="708">
				<a>0.19509,0.980785,0</a>
				<d>-0.980785,0.19509,0</d>
			</e>
			<e lid="709">
				<a>0.19509,0.980785,0</a>
				<d>-0.980785,0.19509,0</d>
			</e>
			<e lid="710">
				<a>0.19509,0.980785,0</a>
				<d>-0.980785,0.19509,0</d>
			</e>
			<e lid="711">
				<a>0.19509,0.980785,0</a>
				<d>-0.980785,0.19509,0</d>
			</e>
			<e lid="712">
				<a>0.19509,0.980785,0</a>
				<d>-0.980785,0.19509,0</d>
			</e>
			<e lid="713">
				<a>0.19509,0.980785,0</a>
				<d>-0.980785,0.19509,0</d>
			</e>
			<e lid="714">
				<a>0.19509,0.980785,0</a>
				<d>-0.980785,0.19509,0</d>
			</e>
			<e lid="715">
				<a>0.19509,0.980785,0</a>
				<d>-0.980785,0.19509,0</d>
			</e>
			<e lid="716">
				<a>0.19509,0.980785,0</a>
				<d>-0.980785,0.19509,0</d>
			</e>
			<e lid="717">
				<a>0.19509,0.980785,0</a>
				<d>-0.980785,0.19509,0</d>
			</e>
			<e lid="718">
				<a>0.19509,0.980785,0</a>
				<d>-0.980785,0.19509,0</d>
			</e>
			<e lid="719">
				<a>0.19509,0.980785,0</a>
				<d>-0.980785,0.19509,0</d>
			</e>
			<e lid="720">
				<a>0.19509,0.980785,0</a>
				<d>-0.980785,0.19509,0</d>
			</e>
			<e lid="721">
				<a>0.156434,0.987688,0</a>
				<d>-0.987688,0.156434,0</d>
			</e>
			<e lid="722">
				<a>0.156434,0.987688,0</a>
				<d>-0.987688,0.156434,0</d>
			</e>
			<e lid="723">
				<a>0.156434,0.987688,0</a>
				<d>-0.987688,0.156434,0</d>
			</e>
			<e lid="724">
				<a>0.156434,0.987688,0</a>
				<d>-0.987688,0.156434,0</d>
			</e>
			<e lid="725">
				<a>0.156434,0.987688,0</a>
				<d>-0.987688,0.156434,0</d>
			</e>
			<e lid="726">
				<a>0.156434,0.987688,0</a>
				<d>-0.987688,0.156434,0</d>
			</e>
			<e lid="727">
				<a>0.156434,0.987688,0</a>
				<d>-0.987688,0.156434,0</d>
			</e>
			<e lid="728">
				<a>0.156434,0.987688,0</a>
				<d>-0.987688,0.156434,0</d>
			</e>
			<e lid="729">
				<a>0.156434,0.987688,0</a>
				<d>-0.987688,0.156434,0</d>
			</e>
			<e lid="730">
				<a>0.156434,0.987688,0</a>
				<d>-0.987688,0.156434,0</d>
			</e>
			<e lid="731">
				<a>0.156434,0.987688,0</a>
				<d>-0.987688,0.156434,0</d>
			</e>
			<e lid="732">
				<a>0.156434,0.987688,0</a>
				<d>-0.987688,0.156434,0</d>
			</e>
			<e lid="733">
				<a>0.156434,0.987688,0</a>
				<d>-0.987688,0.156434,0</d>
			</e>
			<e lid="734">
				<a>0.156434,0.987688,0</a>
				<d>-0.987688,0.156434,0</d>
			</e>
			<e lid="735">
				<a>0.156434,0.987688,0</a>
				<d>-0.987688,0.156434,0</d>
			</e>
			<e lid="736">
				<a>0.156434,0.987688,0</a>
				<d>-0.987688,0.156434,0</d>
			</e>
			<e lid="737">
				<a>0.156434,0.987688,0</a>
				<d>-0.987688,0.156434,0</d>
			</e>
			<e lid="738">
				<a>0.156434,0.987688,0</a>
				<d>-0.987688,0.156434,0</d>
			</e>
			<e lid="739">
				<a>0.156434,0.987688,0</a>
				<d>-0.987688,0.156434,0</d>
			</e>
			<e lid="740">
				<a>0.156434,0.987688,0</a>
				<d>-0.987688,0.156434,0</d>
			</e>
			<e lid="741">
				<a>0.117537,0.993068,0</a>
				<d>-0.993068,0.117537,0</d>
			</e>
			<e lid="742">
				<a>0.117537,0.993068,0</a>
				<d>-0.993068,0.117537,0</d>
			</e>
			<e lid="743">
				<a>0.117537,0.993068,0</a>
				<d>-0.993068,0.117537,0</d>
			</e>
			<e lid="744">
				<a>0.117537,0.993068,0</a>
				<d>-0.993068,0.117537,0</d>
			</e>
			<e lid="745">
				<a>0.117537,0.993068,0</a>
				<d>-0.993068,0.117537,0</d>
			</e>
			<e lid="746">
				<a>0.117537,0.993068,0</a>
				<d>-0.993068,0.117537,0</d>
			</e>
			<e lid="747">
				<a>0.117537,0.993068,0</a>
				<d>-0.993068,0.117537,0</d>
			</e>
			<e lid="748">
				<a>0.117537,0.993068,0</a>
				<d>-0.993068,0.117537,0</d>
			</e>
			<e lid="749">
				<a>0.117537,0.993068,0</a>
				<d>-0.993068,0.117537,0</d>
			</e>
			<e lid="750">
				<a>0.117537,0.993068,0</a>
				<d>-0.993068,0.117537,0</d>
			</e>
			<e lid="751">
				<a>0.117537,0.993068,0</a>
				<d>-0.993068,0.117537,0</d>
			</e>
			<e lid="752">
				<a>0.117537,0.993068,0</a>
				<d>-0.993068,0.117537,0</d>
			</e>
			<e lid="753">
				<a>0.117537,0.993068,0</a>
				<d>-0.993068,0.117537,0</d>
			</e>
			<e lid="754">
				<a>0.117537,0.993068,0</a>
				<d>-0.993068,0.117537,0</d>
			</e>
			<e lid="755">
				<a>0.117537,0.993068,0</a>
				<d>-0.993068,0.117537,0</d>
			</e>
			<e lid="756">
				<a>0.117537,0.993068,0</a>
				<d>-0.993068,0.117537,0</d>
			</e>
			<e lid="757">
				<a>0.117537,0.993068,0</a>
				<d>-0.993068,0.117537,0</d>
			</e>
			<e lid="758">
				<a>0.117537,0.993068,0</a>
				<d>-0.993068,0.117537,0</d>
			</e>
			<e lid="759">
				<a>0.117537,0.993068,0</a>
				<d>-0.993068,0.117537,0</d>
			</e>
			<e lid="760">
				<a>0.117537,0.993068,0</a>
				<d>-0.993068,0.117537,0</d>
			</e>
			<e lid="761">
				<a>0.0784591,0.996917,0</a>
				<d>-0.996917,0.0784591,0</d>
			</e>
			<e lid="762">
				<a>0.0784591,0.996917,0</a>
				<d>-0.996917,0.0784591,0</d>
			</e>
			<e lid="763">
				<a>0.0784591,0.996917,0</a>
				<d>-0.996917,0.0784591,0</d>
			</e>
			<e lid="764">
				<a>0.0784591,0.996917,0</a>
				<d>-0.996917,0.0784591,0</d>
			</e>
			<e lid="765">
				<a>0.0784591,0.996917,0</a>
				<d>-0.996917,0.0784591,0</d>
			</e>
			<e lid="766">
				<a>0.0784591,0.996917,0</a>
				<d>-0.996917,0.0784591,0</d>
			</e>
			<e lid="767">
				<a>0.0784591,0.996917,0</a>
				<d>-0.996917,0.0784591,0</d>
			</e>
			<e lid="768">
				<a>0.0784591,0.996917,0</a>
				<d>-0.996917,0.0784591,0</d>
			</e>
			<e lid="769">
				<a>0.0784591,0.996917,0</a>
				<d>-0.996917,0.0784591,0</d>
			</e>
			<e lid="770">
				<a>0.0784591,0.996917,0</a>
				<d>-0.996917,0.0784591,0</d>
			</e>
			<e lid="771">
				<a>0.0784591,0.996917,0</a>
				<d>-0.996917,0.0784591,0</d>
			</e>
			<e lid="772">
				<a>0.0784591,0.996917,0</a>
				<d>-0.996917,0.0784591,0</d>
			</e>
			<e lid="773">
				<a>0.0784591,0.996917,0</a>
				<d>-0.996917,0.0784591,0</d>
			</e>
			<e lid="774">
				<a>0.0784591,0.996917,0</a>
				<d>-0.996917,0.0784591,0</d>
			</e>
			<e lid="775">
				<a>0.0784591,0.996917,0</a>
				<d>-0.996917,0.0784591,0</d>
			</e>
			<e lid="776">
				<a>0.0784591,0.996917,0</a>
				<d>-0.996917,0.0784591,0</d>
			</e>
			<e lid="777">
				<a>0.0784591,0.996917,0</a>
				<d>-0.996917,0.0784591,0</d>
			</e>
			<e lid="778">
				<a>0.0784591,0.996917,0</a>
				<d>-0.996917,0.0784591,0</d>
			</e>
			<e lid="779">
				<a>0.0784591,0.996917,0</a>
				<d>-0.996917,0.0784591,0</d>
			</e>
			<e lid="780">
				<a>0.0784591,0.996917,0</a>
				<d>-0.996917,0.0784591,0</d>
			</e>
			<e lid="781">
				<a>0.0392598,0.999229,0</a>
				<d>-0.999229,0.0392598,0</d>
			</e>
			<e lid="782">
				<a>0.0392598,0.999229,0</a>
				<d>-0.999229,0.0392598,0</d>
			</e>
			<e lid="783">
				<a>0.0392598,0.999229,0</a>
				<d>-0.999229,0.0392598,0</d>
			</e>
			<e lid="784">
				<a>0.0392598,0.999229,0</a>
				<d>-0.999229,0.0392598,0</d>
			</e>
			<e lid="785">
				<a>0.0392598,0.999229,0</a>
				<d>-0.999229,0.0392598,0</d>
			</e>
			<e lid="786">
				<a>0.0392598,0.999229,0</a>
				<d>-0.999229,0.0392598,0</d>
			</e>
			<e lid="787">
				<a>0.0392598,0.999229,0</a>
				<d>-0.999229,0.0392598,0</d>
			</e>
			<e lid="788">
				<a>0.0392598,0.999229,0</a>
				<d>-0.999229,0.0392598,0</d>
			</e>
			<e lid="789">
				<a>0.0392598,0.999229,0</a>
				<d>-0.999229,0.0392598,0</d>
			</e>
			<e lid="790">
				<a>0.0392598,0.999229,0</a>
				<d>-0.999229,0.0392598,0</d>
			</e>
			<e lid="791">
				<a>0.0392598,0.999229,0</a>
				<d>-0.999229,0.0392598,0</d>
			</e>
			<e lid="792">
				<a>0.0392598,0.999229,0</a>
				<d>-0.999229,0.0392598,0</d>
			</e>
			<e lid="793">
				<a>0.0392598,0.999229,0</a>
				<d>-0.999229,0.0392598,0</d>
			</e>
			<e lid="794">
				<a>0.0392598,0.999229,0</a>
				<d>-0.999229,0.0392598,0</d>
			</e>
			<e lid="795">
				<a>0.0392598,0.999229,0</a>
				<d>-0.999229,0.0392598,0</d>
			</e>
			<e lid="796">
				<a>0.0392598,0.999229,0</a>
				<d>-0.999229,0.0392598,0</d>
			</e>
			<e lid="797">
				<a>0.0392598,0.999229,0</a>
				<d>-0.999229,0.0392598,0</d>
			</e>
			<e lid="798">
				<a>0.0392598,0.999229,0</a>
				<d>-0.999229,0.0392598,0</d>
			</e>
			<e lid="799">
				<a>0.0392598,0.999229,0</a>
				<d>-0.999229,0.0392598,0</d>
			</e>
			<e lid="800">
				<a>0.0392598,0.999229,0</a>
				<d>-0.999229,0.0392598,0</d>
			</e>
		</ElementData>
	</MeshData>
	<Boundary>
		<bc name="FixedDisplacement1" type="fix" node_set="@surface:FixedDisplacement1">
			<dofs>z</dofs>
		</bc>
		<bc name="FixedDisplacement2" type="fix" node_set="@surface:FixedDisplacement2">
			<dofs>x,y</dofs>
		</bc>
		<bc name="FixedDisplacement3" type="fix" node_set="@surface:FixedDisplacement3">
			<dofs>y</dofs>
		</bc>
		<bc name="FixedDisplacement4" type="fix" node_set="@surface:FixedDisplacement4">
			<dofs>x</dofs>
		</bc>
	</Boundary>
	<LoadData>
		<load_controller id="1" type="loadcurve">
			<interpolate>LINEAR</interpolate>
			<points>
				<point>0,0</point>
				<point>1,1</point>
			</points>
		</load_controller>
		<load_controller id="2" type="loadcurve">
			<interpolate>LINEAR</interpolate>
			<points>
				<point>0,0</point>
				<point>1,1</point>
			</points>
		</load_controller>
	</LoadData>
	<Output>
		<plotfile type="febio">
			<var type="displacement"/>
			<var type="fiber vector"/>
			<var type="relative volume"/>
			<var type="stress"/>
			<var type="parameter['fem.material[0].solid[1].T0']=T_sphincter"/>
			<var type="parameter['fem.material[0].solid[2].T0']=T_dialator"/>
		</plotfile>
		<logfile>
			<element_data data="x;y;z;sx;sy;sz;sxy;syz;sxz;Ex;Ey;Ez;Exy;Eyz;Exz"/>
			<node_data data="x;y;z;ux;uy;uz"/>
		</logfile>
	</Output>
</febio_spec>
