<?xml version="1.0" encoding="utf-8"?>
<febio_spec version="3.0">
   <Module type="solid"/>
   <Control>
      <analysis>STATIC</analysis>
      <time_steps>10</time_steps>
      <step_size>1.000000e-01</step_size>
      <solver>
         <max_refs>15</max_refs>
         <max_ups>10</max_ups>
         <diverge_reform>1</diverge_reform>
         <reform_each_time_step>1</reform_each_time_step>
         <dtol>0.001</dtol>
         <etol>0.01</etol>
         <rtol>0</rtol>
         <lstol>0.9</lstol>
         <min_residual>1e-20</min_residual>
         <qnmethod>BFGS</qnmethod>
         <rhoi>0</rhoi>
      </solver>
      <time_stepper>
         <dtmin>0.1</dtmin>
         <dtmax lc="1"/>
         <max_retries>10</max_retries>
         <opt_iter>10</opt_iter>
      </time_stepper>
   </Control>
   <Globals>
      <Constants>
         <T>0</T>
         <R>0</R>
         <Fc>0</Fc>
      </Constants>
   </Globals>
   <Material>
      <material id="1" name="Material1" type="solid mixture">
         <density>1</density>
         <solid type="reactive viscoelastic">
            <density>1</density>
            <kinetics>1</kinetics>
            <trigger>0</trigger>
            <elastic type="neo-Hookean">
               <E>0.15152989695187371599</E>
               <v>0.26425374723252414988</v>
            </elastic>
            <bond type="neo-Hookean">
               <E>0.15152989695187371599</E>
               <v>0.26425374723252414988</v>
            </bond>
            <relaxation type="relaxation-power">
               <tau>0.00000100000000000000</tau>
               <beta>2.00000000000000000000</beta>
            </relaxation>
         </solid>
         <solid type="prescribed uniaxial active contraction">
            <T0 lc="2" type="math">(1-tanh(5*((X^2+Y^2)^.5-4.4)))*H((X^2+Y^2)^.5-3.4)</T0>
            <mat_axis type="vector">
               <a>0,1,0</a>
               <d>0,1,0</d>
            </mat_axis>
         </solid>
         <solid type="prescribed uniaxial active contraction">
            <T0 lc="3">1</T0>
            <mat_axis type="vector">
               <a>1,0,0</a>
               <d>0,1,0</d>
            </mat_axis>
         </solid>
      </material>
   </Material>
   <Mesh>
      <Nodes name="Object01">
         <node id="1">3.8,0,0</node>
         <node id="2">3.91,0,0</node>
         <node id="3">4.02,0,0</node>
         <node id="4">4.13,0,0</node>
         <node id="5">4.24,0,0</node>
         <node id="6">4.35,0,0</node>
         <node id="7">4.46,0,0</node>
         <node id="8">4.57,0,0</node>
         <node id="9">4.68,0,0</node>
         <node id="10">4.79,0,0</node>
         <node id="11">4.9,0,0</node>
         <node id="12">5.01,0,0</node>
         <node id="13">5.12,0,0</node>
         <node id="14">5.23,0,0</node>
         <node id="15">5.34,0,0</node>
         <node id="16">5.45,0,0</node>
         <node id="17">5.56,0,0</node>
         <node id="18">5.67,0,0</node>
         <node id="19">5.78,0,0</node>
         <node id="20">5.89,0,0</node>
<!-- ... 358 like lines cut -->
      </Nodes>
      <Elements name="Part4" type="hex8">
         <elem id="1"> 1, 2, 23, 22, 43, 44, 65, 64</elem>
         <elem id="2"> 2, 3, 24, 23, 44, 45, 66, 65</elem>
         <elem id="3"> 3, 4, 25, 24, 45, 46, 67, 66</elem>
         <elem id="4"> 4, 5, 26, 25, 46, 47, 68, 67</elem>
         <elem id="5"> 5, 6, 27, 26, 47, 48, 69, 68</elem>
         <elem id="6"> 6, 7, 28, 27, 48, 49, 70, 69</elem>
         <elem id="7"> 7, 8, 29, 28, 49, 50, 71, 70</elem>
         <elem id="8"> 8, 9, 30, 29, 50, 51, 72, 71</elem>
         <elem id="9"> 9, 10, 31, 30, 51, 52, 73, 72</elem>
         <elem id="10"> 10, 11, 32, 31, 52, 53, 74, 73</elem>
         <elem id="11"> 11, 12, 33, 32, 53, 54, 75, 74</elem>
         <elem id="12"> 12, 13, 34, 33, 54, 55, 76, 75</elem>
         <elem id="13"> 13, 14, 35, 34, 55, 56, 77, 76</elem>
         <elem id="14"> 14, 15, 36, 35, 56, 57, 78, 77</elem>
         <elem id="15"> 15, 16, 37, 36, 57, 58, 79, 78</elem>
         <elem id="16"> 16, 17, 38, 37, 58, 59, 80, 79</elem>
         <elem id="17"> 17, 18, 39, 38, 59, 60, 81, 80</elem>
         <elem id="18"> 18, 19, 40, 39, 60, 61, 82, 81</elem>
         <elem id="19"> 19, 20, 41, 40, 61, 62, 83, 82</elem>
         <elem id="20"> 20, 21, 42, 41, 62, 63, 84, 83</elem>
<!-- ... 140 like lines cut -->
      </Elements>
      <Surface name="FixedDisplacement1">
         <quad4 id="1"> 1, 2, 44, 43</quad4>
         <quad4 id="2"> 2, 3, 45, 44</quad4>
         <quad4 id="3"> 3, 4, 46, 45</quad4>
         <quad4 id="4"> 4, 5, 47, 46</quad4>
         <quad4 id="5"> 5, 6, 48, 47</quad4>
         <quad4 id="6"> 6, 7, 49, 48</quad4>
         <quad4 id="7"> 7, 8, 50, 49</quad4>
         <quad4 id="8"> 8, 9, 51, 50</quad4>
         <quad4 id="9"> 9, 10, 52, 51</quad4>
         <quad4 id="10"> 10, 11, 53, 52</quad4>
         <quad4 id="11"> 11, 12, 54, 53</quad4>
         <quad4 id="12"> 12, 13, 55, 54</quad4>
         <quad4 id="13"> 13, 14, 56, 55</quad4>
         <quad4 id="14"> 14, 15, 57, 56</quad4>
         <quad4 id="15"> 15, 16, 58, 57</quad4>
         <quad4 id="16"> 16, 17, 59, 58</quad4>
         <quad4 id="17"> 17, 18, 60, 59</quad4>
         <quad4 id="18"> 18, 19, 61, 60</quad4>
         <quad4 id="19"> 19, 20, 62, 61</quad4>
         <quad4 id="20"> 20, 21, 63, 62</quad4>
<!-- ... 140 like lines cut -->
      </Surface>
      <Surface name="FixedDisplacement2">
         <quad4 id="1"> 21, 42, 84, 63</quad4>
         <quad4 id="2"> 63, 84, 126, 105</quad4>
         <quad4 id="3"> 105, 126, 168, 147</quad4>
         <quad4 id="4"> 147, 168, 210, 189</quad4>
         <quad4 id="5"> 189, 210, 252, 231</quad4>
         <quad4 id="6"> 231, 252, 294, 273</quad4>
         <quad4 id="7"> 273, 294, 336, 315</quad4>
         <quad4 id="8"> 315, 336, 378, 357</quad4>
      </Surface>
      <Surface name="SymmetryPlane1">
         <quad4 id="1"> 23, 22, 64, 65</quad4>
         <quad4 id="2"> 24, 23, 65, 66</quad4>
         <quad4 id="3"> 25, 24, 66, 67</quad4>
         <quad4 id="4"> 26, 25, 67, 68</quad4>
         <quad4 id="5"> 27, 26, 68, 69</quad4>
         <quad4 id="6"> 28, 27, 69, 70</quad4>
         <quad4 id="7"> 29, 28, 70, 71</quad4>
         <quad4 id="8"> 30, 29, 71, 72</quad4>
         <quad4 id="9"> 31, 30, 72, 73</quad4>
         <quad4 id="10"> 32, 31, 73, 74</quad4>
         <quad4 id="11"> 33, 32, 74, 75</quad4>
         <quad4 id="12"> 34, 33, 75, 76</quad4>
         <quad4 id="13"> 35, 34, 76, 77</quad4>
         <quad4 id="14"> 36, 35, 77, 78</quad4>
         <quad4 id="15"> 37, 36, 78, 79</quad4>
         <quad4 id="16"> 38, 37, 79, 80</quad4>
         <quad4 id="17"> 39, 38, 80, 81</quad4>
         <quad4 id="18"> 40, 39, 81, 82</quad4>
         <quad4 id="19"> 41, 40, 82, 83</quad4>
         <quad4 id="20"> 42, 41, 83, 84</quad4>
<!-- ... 140 like lines cut -->
      </Surface>
   </Mesh>
   <MeshDomains>
      <SolidDomain mat="Material1" name="Part4"/>
   </MeshDomains>
   <Boundary>
      <bc name="FixedDisplacement1" node_set="@surface:FixedDisplacement1" type="fix">
         <dofs>y</dofs>
      </bc>
      <bc name="FixedDisplacement2" node_set="@surface:FixedDisplacement2" type="fix">
         <dofs>x,y</dofs>
      </bc>
   </Boundary>
   <Constraints>
      <constraint name="SymmetryPlane1" surface="SymmetryPlane1" type="symmetry plane">
         <laugon>1</laugon>
         <tol>0.2</tol>
         <penalty>1</penalty>
         <minaug>0</minaug>
         <maxaug>10</maxaug>
      </constraint>
   </Constraints>
   <LoadData>
      <load_controller id="1" type="loadcurve">
         <interpolate>STEP</interpolate>
         <points>
            <point>0,0</point>
            <point>1,1</point>
         </points>
      </load_controller>
      <load_controller id="2" type="loadcurve">
         <interpolate>LINEAR</interpolate>
         <points>
            <point>0.00000000000000000000,0.00000000000000000000</point>
            <point>1.00000000000000000000,1.00000000000000000000</point>
         </points>
      </load_controller>
      <load_controller id="3" type="loadcurve">
         <interpolate>LINEAR</interpolate>
         <points>
            <point>0.00000000000000000000,0.00000000000000000000</point>
            <point>1.00000000000000000000,0.00000000000000000000</point>
         </points>
      </load_controller>
   </LoadData>
   <Output>
      <plotfile type="febio">
         <var type="displacement"/>
         <var type="fiber vector"/>
         <var type="relative volume"/>
         <var type="stress"/>
         <var type="parameter['fem.material[0].solid[1].T0']=T_sphincter"/>
         <var type="parameter['fem.material[0].solid[2].T0']=T_dialator"/>
      </plotfile>
      <logfile>
         <element_data data="x;y;z;sx;sy;sz;Ex;Ey;Ez"/>
         <node_data data="x;y;z;ux;uy;uz"/>
      </logfile>
   </Output>
</febio_spec>